#p oniom(b3lyp/6-31G*:uff) bomd=(maxpoint=22,update=5) test

Gaussian Teste Job 584:
Water Dimer BOMD with ONIOM

 0  1
 O                  0.075150    0.096098   -1.507165  h
 H                 -0.462357   -0.557423   -1.961913  h
 H                 -0.079898   -0.050739   -0.561441  h
 O                 -0.053443   -0.095577    1.387884  m
 H                 -0.496229    0.648590    1.807419  m
 H                  0.864829   -0.044600    1.670178  m


