#p test pm6 irc(forward,maxpoints=5,eulerpc,calcfc,report,recorr=always)

Gaussian Test Job 899:
HCN rearrangment using EulerPC and reporting internal coordinates,
forward only.

0 1
 6      0.089839    0.631011    0.000000
 1     -1.167906    0.206222    0.000000
 7      0.089839   -0.570327    0.000000

