#p test nosymm hf/sto-3g 6D guess=(noorthog,mocheck,cards,fixnorm) scf=novaracc

Gaussian Test Job 985 (Part 1):
MOs from cards, doing adjust

0  1
 Ti                    0.        0.        0. 
 H                    -1.7       0.        0. 
 H                     1.7       0.        0. 

(5D15.8)
    1 Alpha MO OE=-1.81705062E+02
 9.92190872E-01 2.10056000E-02 4.00686483E-17 2.31249910E-18-7.79001605E-19
-8.11375806E-03-1.15432771E-16-8.26295547E-18 2.35545889E-18-5.93676474E-03
-2.48656131E-17 1.68706832E-17-5.69653650E-18 4.38264482E-03 4.52859556E-03
 4.52859556E-03-1.15049408E-21 3.00542127E-22 3.35653885E-22 1.86750697E-04
 1.86750697E-04
    2 Alpha MO OE=-2.14813024E+01
-4.05829763E-01 1.03693426E+00 1.33878857E-16 2.76903461E-18-7.23771137E-18
 1.46079644E-01-2.63231546E-16 2.90267627E-18-1.67448182E-17 9.23997434E-02
-3.25458042E-17-5.84947863E-18 9.93366019E-18-6.99409458E-02-7.17882876E-02
-7.17882876E-02 1.13213709E-19-3.45710866E-20-3.24919605E-20-2.64216245E-03
-2.64216245E-03
    3 Alpha MO OE=-1.80490239E+01
-5.44235381E-18 1.50269369E-17-1.05389031E-13-6.54849134E-01 7.40718933E-01
-1.96228680E-17-4.02217156E-15-2.33409326E-02 2.64016089E-02-6.81313816E-17
 1.38985052E-15 5.33324777E-03-6.03259193E-03-2.63934645E-18-2.90060073E-17
 1.07603693E-16-1.76422937E-16-1.78485117E-17 6.34702248E-16 6.04869775E-16
-5.49586877E-16
    4 Alpha MO OE=-1.80490239E+01
-7.59326886E-18 3.05586238E-17 7.76604647E-13 7.40718933E-01 6.54849134E-01
-7.69283465E-17 2.81192220E-14 2.64016089E-02 2.33409326E-02 1.49262660E-16
-8.97920861E-15-6.03259193E-03-5.33324777E-03 2.37659213E-16-7.30979028E-17
-4.84563707E-17-3.06773797E-18-7.10484697E-18-4.37049983E-18-2.88074444E-15
 2.49957793E-15
    5 Alpha MO OE=-1.80377672E+01
 2.79557869E-17-7.44584618E-17 9.88555494E-01-6.51731979E-13-4.35657796E-13
 1.46787138E-16 3.58315801E-02-2.38986835E-14-1.54803601E-14 2.55217959E-16
-1.15055347E-02 5.35130947E-15 3.55595150E-15-8.02496266E-17-1.60983562E-16
-1.58912761E-16 1.22818859E-19-4.99274146E-19 2.07238762E-19-3.39620194E-03
 3.39620194E-03
    6 Alpha MO OE=-3.07371525E+00
 1.44504668E-01-4.48768329E-01-5.48077512E-17 8.26099657E-17 4.72412043E-17
 1.19329384E+00 1.77121048E-16-2.56800103E-16-1.38940521E-16 1.61403043E-01
-3.61993032E-16 2.13904214E-16 4.96566405E-17-1.26955096E-01-1.19620505E-01
-1.19620505E-01 1.95616423E-18-8.03082753E-19-5.16479251E-19 1.75479898E-03
 1.75479898E-03
    7 Alpha MO OE=-1.98141133E+00
 4.37149353E-17-8.49035751E-17 6.65959666E-15-2.10317958E-01-2.83305915E-01
 4.66176515E-16-1.87306188E-14 6.12208597E-01 8.24667176E-01 4.18864595E-16
-9.55146604E-16 3.25445694E-02 4.38387149E-02-4.03561639E-16-5.29446138E-16
-3.64250871E-17-1.95607465E-16-2.45456254E-16 1.67517627E-17 4.75531986E-16
 2.16563955E-16
    8 Alpha MO OE=-1.98141133E+00
-5.43841282E-18 1.22511737E-17 4.11723387E-15-2.83305915E-01 2.10317958E-01
-1.67773751E-16-1.10759715E-14 8.24667176E-01-6.12208597E-01-6.88302279E-16
-2.85647362E-16 4.38387149E-02-3.25445694E-02 3.15626135E-16 3.03859603E-16
 4.17864589E-16-4.21393092E-16 1.89357898E-16-1.75915617E-16-6.36960944E-16
 2.63726140E-16
    9 Alpha MO OE=-1.97223485E+00
 4.66574387E-17-1.69900572E-16-3.53061612E-01-6.77300432E-15-3.00443601E-15
 1.48768872E-15 1.02906052E+00 1.95963698E-14 8.74811786E-15 1.06206654E-15
 4.07077146E-02 9.57685008E-16-2.03318135E-16-1.37829564E-15-6.39338063E-16
-1.25759665E-15-2.74573715E-18-1.91475520E-17-3.13887441E-17-1.82802537E-02
 1.82802537E-02
    10 Alpha MO OE=-4.17947066E-01
-2.62802380E-02 8.07299358E-02-4.80235342E-15-2.73170285E-16 9.63296042E-17
-2.57990770E-01 1.64392122E-14 9.84508535E-16-2.68206264E-16 5.21735215E-01
-1.88910559E-14-2.08648608E-15-1.88980289E-16 2.86802364E-01-1.80588443E-01
-1.80588443E-01-1.11727003E-17 5.95844281E-18 2.56964912E-18 4.03903074E-01
 4.03903074E-01
    11 Alpha MO OE=-3.17963142E-01
-1.01506829E-15 2.97038454E-15 1.03137487E-01 8.00881911E-17-1.53463635E-16
-7.56677660E-15-3.59104727E-01-7.50020093E-17 5.00196486E-16 2.98775245E-14
 4.57887535E-01-1.36253074E-15 1.55218554E-16 6.81926904E-15-1.04705991E-14
-1.05656420E-14 4.94321172E-17-3.62871511E-17 9.59086015E-17-4.75799829E-01
 4.75799829E-01
    12 Alpha MO OE=-1.85860331E-01
-2.80992316E-02 9.07148438E-02-4.45588422E-16 2.97517541E-16-4.72255746E-18
-2.19686514E-01 1.59210422E-15-1.07779972E-15 2.13938771E-17 9.71958181E-01
-3.06576230E-15 2.31272071E-15-5.84190991E-17-7.40721271E-01 2.39886198E-01
 2.39886198E-01 3.04954183E-17-1.71961529E-17-6.45547653E-18-1.72288040E-01
-1.72288040E-01
    13 Alpha MO OE=2.33594265E-01
-3.17084636E-17 3.84979233E-17 2.89120378E-17 1.50280786E-01 2.41037461E-03
-2.76025169E-16-3.54515842E-16-5.39795780E-01-8.65786026E-03-1.64382364E-15
 5.77453510E-16 1.10122569E+00 1.76627134E-02 1.81285568E-15-5.80696168E-15
 4.74825010E-15 3.21738751E-15-4.81147520E-16 1.30447031E-15 9.55914056E-16
 2.07213176E-15
    14 Alpha MO OE=2.33594265E-01
-3.21806866E-18 2.90714775E-17-2.23502066E-16-2.41037461E-03 1.50280786E-01
-1.00574753E-16 6.46319493E-16 8.65786026E-03-5.39795780E-01 1.89334522E-16
-9.87022257E-18-1.76627134E-02 1.10122569E+00-8.00664924E-18 1.49536747E-17
-5.97567391E-17-9.13372067E-16 3.63576661E-15-1.26461683E-14 7.75615535E-17
-6.01281588E-17
    15 Alpha MO OE=2.47878646E-01
-7.77578853E-16 2.70876635E-15 1.40474598E-16 7.96296703E-16 8.87384039E-18
-1.55082095E-14-4.18449403E-16-3.06308669E-15 1.68640833E-16-2.65381791E-14
 1.75975821E-16 6.72462425E-15 6.73951295E-17 1.29597062E-14 8.66025366E-01
-8.66025366E-01 1.02083120E-15 5.83608064E-16-5.10535944E-04 2.07336840E-15
 1.75004467E-15
    16 Alpha MO OE=2.47878646E-01
-3.03544859E-19 1.05871736E-18-1.13713976E-17 9.06621110E-17 8.37984510E-16
-4.63669602E-18 3.53547836E-17 5.33351329E-16-3.97214142E-15-8.72385843E-19
-1.52784470E-17-9.09393113E-16 7.93933044E-15 2.92123446E-18 2.55267972E-04
-2.55267972E-04-6.40588970E-16 9.67120885E-16 1.73205073E+00 2.80974249E-17
-3.51415137E-17
    17 Alpha MO OE=2.82321513E-01
-4.08142243E-18 1.43531854E-17-1.28596596E-17-4.28806380E-16 2.54997438E-16
-5.35737596E-17 4.71465257E-17 1.25483745E-15-6.34549854E-16 1.26829119E-17
-1.27176740E-16-2.01886263E-15 1.08147386E-15 1.28143496E-16-4.31489352E-16
 4.12802326E-16 1.66596143E+00-4.73890824E-01 8.74789921E-16-1.17054489E-16
-1.47352729E-17
    18 Alpha MO OE=2.82321513E-01
 1.15548627E-18-4.05812997E-18-6.33677360E-18-1.06892773E-16-3.28031315E-16
 1.68167314E-17 2.17849967E-17 2.89602468E-16 1.25251052E-15 7.10585768E-18
-3.89989737E-17-4.44537712E-16-2.21513826E-15-3.22676166E-17-4.26774399E-16
 4.19150375E-16 4.73890824E-01 1.66596143E+00-7.55361125E-16-2.02246971E-17
 4.59007907E-17
    19 Alpha MO OE=6.29556248E-01
-1.58737081E-02 5.64476653E-02 1.05793171E-15-1.59478126E-16-2.30926123E-16
-5.58704849E-02-4.14121616E-15-1.70000539E-16 2.81495033E-16 1.08249494E+00
 1.21464507E-14 5.29288614E-16-1.09929989E-17 7.15037073E-01-5.47062920E-01
-5.47062920E-01-1.46376323E-16 7.58373889E-17-6.03904248E-18-8.12770376E-01
-8.12770376E-01
    20 Alpha MO OE=7.83178075E-01
-4.10572589E-16 1.52393524E-15 1.28461375E-01-2.94762695E-18-1.40264310E-16
-9.92425543E-15-4.81060493E-01 2.86214224E-16 2.53292157E-17-2.34548718E-14
 1.46392501E+00-5.23468402E-19-1.84324054E-17 2.47548424E-15 1.47422496E-14
 1.52948962E-14 8.32869800E-16-2.73590720E-17-1.09634953E-17 8.76024213E-01
-8.76024213E-01
    21 Alpha MO OE=1.16198766E+00
 1.20756666E-01-4.20771269E-01 5.81866072E-16 5.47944147E-18 1.14467022E-16
 2.11560525E+00-2.29585472E-15 3.77238042E-17-2.40691193E-16 3.11469308E+00
 6.25329983E-15 1.99433617E-17-1.81831895E-17-1.91486804E+00-2.03641839E+00
-2.03641839E+00 3.52485624E-17-2.38420276E-17-1.73051485E-19-1.55760985E-01
-1.55760985E-01

--Link1--
#p test nosymm hf/sto-3g 6D guess=(noorthog,mocheck,cards) scf=novaracc

Gaussian Test Job 985 (Part 2):
MOs from cards, skipping adjust, should fail mocheck

0  1
 Ti                    0.        0.        0. 
 H                    -1.7       0.        0. 
 H                     1.7       0.        0. 

(5D15.8)
    1 Alpha MO OE=-1.81705062E+02
 9.92190872E-01 2.10056000E-02 4.00686483E-17 2.31249910E-18-7.79001605E-19
-8.11375806E-03-1.15432771E-16-8.26295547E-18 2.35545889E-18-5.93676474E-03
-2.48656131E-17 1.68706832E-17-5.69653650E-18 4.38264482E-03 4.52859556E-03
 4.52859556E-03-1.15049408E-21 3.00542127E-22 3.35653885E-22 1.86750697E-04
 1.86750697E-04
    2 Alpha MO OE=-2.14813024E+01
-4.05829763E-01 1.03693426E+00 1.33878857E-16 2.76903461E-18-7.23771137E-18
 1.46079644E-01-2.63231546E-16 2.90267627E-18-1.67448182E-17 9.23997434E-02
-3.25458042E-17-5.84947863E-18 9.93366019E-18-6.99409458E-02-7.17882876E-02
-7.17882876E-02 1.13213709E-19-3.45710866E-20-3.24919605E-20-2.64216245E-03
-2.64216245E-03
    3 Alpha MO OE=-1.80490239E+01
-5.44235381E-18 1.50269369E-17-1.05389031E-13-6.54849134E-01 7.40718933E-01
-1.96228680E-17-4.02217156E-15-2.33409326E-02 2.64016089E-02-6.81313816E-17
 1.38985052E-15 5.33324777E-03-6.03259193E-03-2.63934645E-18-2.90060073E-17
 1.07603693E-16-1.76422937E-16-1.78485117E-17 6.34702248E-16 6.04869775E-16
-5.49586877E-16
    4 Alpha MO OE=-1.80490239E+01
-7.59326886E-18 3.05586238E-17 7.76604647E-13 7.40718933E-01 6.54849134E-01
-7.69283465E-17 2.81192220E-14 2.64016089E-02 2.33409326E-02 1.49262660E-16
-8.97920861E-15-6.03259193E-03-5.33324777E-03 2.37659213E-16-7.30979028E-17
-4.84563707E-17-3.06773797E-18-7.10484697E-18-4.37049983E-18-2.88074444E-15
 2.49957793E-15
    5 Alpha MO OE=-1.80377672E+01
 2.79557869E-17-7.44584618E-17 9.88555494E-01-6.51731979E-13-4.35657796E-13
 1.46787138E-16 3.58315801E-02-2.38986835E-14-1.54803601E-14 2.55217959E-16
-1.15055347E-02 5.35130947E-15 3.55595150E-15-8.02496266E-17-1.60983562E-16
-1.58912761E-16 1.22818859E-19-4.99274146E-19 2.07238762E-19-3.39620194E-03
 3.39620194E-03
    6 Alpha MO OE=-3.07371525E+00
 1.44504668E-01-4.48768329E-01-5.48077512E-17 8.26099657E-17 4.72412043E-17
 1.19329384E+00 1.77121048E-16-2.56800103E-16-1.38940521E-16 1.61403043E-01
-3.61993032E-16 2.13904214E-16 4.96566405E-17-1.26955096E-01-1.19620505E-01
-1.19620505E-01 1.95616423E-18-8.03082753E-19-5.16479251E-19 1.75479898E-03
 1.75479898E-03
    7 Alpha MO OE=-1.98141133E+00
 4.37149353E-17-8.49035751E-17 6.65959666E-15-2.10317958E-01-2.83305915E-01
 4.66176515E-16-1.87306188E-14 6.12208597E-01 8.24667176E-01 4.18864595E-16
-9.55146604E-16 3.25445694E-02 4.38387149E-02-4.03561639E-16-5.29446138E-16
-3.64250871E-17-1.95607465E-16-2.45456254E-16 1.67517627E-17 4.75531986E-16
 2.16563955E-16
    8 Alpha MO OE=-1.98141133E+00
-5.43841282E-18 1.22511737E-17 4.11723387E-15-2.83305915E-01 2.10317958E-01
-1.67773751E-16-1.10759715E-14 8.24667176E-01-6.12208597E-01-6.88302279E-16
-2.85647362E-16 4.38387149E-02-3.25445694E-02 3.15626135E-16 3.03859603E-16
 4.17864589E-16-4.21393092E-16 1.89357898E-16-1.75915617E-16-6.36960944E-16
 2.63726140E-16
    9 Alpha MO OE=-1.97223485E+00
 4.66574387E-17-1.69900572E-16-3.53061612E-01-6.77300432E-15-3.00443601E-15
 1.48768872E-15 1.02906052E+00 1.95963698E-14 8.74811786E-15 1.06206654E-15
 4.07077146E-02 9.57685008E-16-2.03318135E-16-1.37829564E-15-6.39338063E-16
-1.25759665E-15-2.74573715E-18-1.91475520E-17-3.13887441E-17-1.82802537E-02
 1.82802537E-02
    10 Alpha MO OE=-4.17947066E-01
-2.62802380E-02 8.07299358E-02-4.80235342E-15-2.73170285E-16 9.63296042E-17
-2.57990770E-01 1.64392122E-14 9.84508535E-16-2.68206264E-16 5.21735215E-01
-1.88910559E-14-2.08648608E-15-1.88980289E-16 2.86802364E-01-1.80588443E-01
-1.80588443E-01-1.11727003E-17 5.95844281E-18 2.56964912E-18 4.03903074E-01
 4.03903074E-01
    11 Alpha MO OE=-3.17963142E-01
-1.01506829E-15 2.97038454E-15 1.03137487E-01 8.00881911E-17-1.53463635E-16
-7.56677660E-15-3.59104727E-01-7.50020093E-17 5.00196486E-16 2.98775245E-14
 4.57887535E-01-1.36253074E-15 1.55218554E-16 6.81926904E-15-1.04705991E-14
-1.05656420E-14 4.94321172E-17-3.62871511E-17 9.59086015E-17-4.75799829E-01
 4.75799829E-01
    12 Alpha MO OE=-1.85860331E-01
-2.80992316E-02 9.07148438E-02-4.45588422E-16 2.97517541E-16-4.72255746E-18
-2.19686514E-01 1.59210422E-15-1.07779972E-15 2.13938771E-17 9.71958181E-01
-3.06576230E-15 2.31272071E-15-5.84190991E-17-7.40721271E-01 2.39886198E-01
 2.39886198E-01 3.04954183E-17-1.71961529E-17-6.45547653E-18-1.72288040E-01
-1.72288040E-01
    13 Alpha MO OE=2.33594265E-01
-3.17084636E-17 3.84979233E-17 2.89120378E-17 1.50280786E-01 2.41037461E-03
-2.76025169E-16-3.54515842E-16-5.39795780E-01-8.65786026E-03-1.64382364E-15
 5.77453510E-16 1.10122569E+00 1.76627134E-02 1.81285568E-15-5.80696168E-15
 4.74825010E-15 3.21738751E-15-4.81147520E-16 1.30447031E-15 9.55914056E-16
 2.07213176E-15
    14 Alpha MO OE=2.33594265E-01
-3.21806866E-18 2.90714775E-17-2.23502066E-16-2.41037461E-03 1.50280786E-01
-1.00574753E-16 6.46319493E-16 8.65786026E-03-5.39795780E-01 1.89334522E-16
-9.87022257E-18-1.76627134E-02 1.10122569E+00-8.00664924E-18 1.49536747E-17
-5.97567391E-17-9.13372067E-16 3.63576661E-15-1.26461683E-14 7.75615535E-17
-6.01281588E-17
    15 Alpha MO OE=2.47878646E-01
-7.77578853E-16 2.70876635E-15 1.40474598E-16 7.96296703E-16 8.87384039E-18
-1.55082095E-14-4.18449403E-16-3.06308669E-15 1.68640833E-16-2.65381791E-14
 1.75975821E-16 6.72462425E-15 6.73951295E-17 1.29597062E-14 8.66025366E-01
-8.66025366E-01 1.02083120E-15 5.83608064E-16-5.10535944E-04 2.07336840E-15
 1.75004467E-15
    16 Alpha MO OE=2.47878646E-01
-3.03544859E-19 1.05871736E-18-1.13713976E-17 9.06621110E-17 8.37984510E-16
-4.63669602E-18 3.53547836E-17 5.33351329E-16-3.97214142E-15-8.72385843E-19
-1.52784470E-17-9.09393113E-16 7.93933044E-15 2.92123446E-18 2.55267972E-04
-2.55267972E-04-6.40588970E-16 9.67120885E-16 1.73205073E+00 2.80974249E-17
-3.51415137E-17
    17 Alpha MO OE=2.82321513E-01
-4.08142243E-18 1.43531854E-17-1.28596596E-17-4.28806380E-16 2.54997438E-16
-5.35737596E-17 4.71465257E-17 1.25483745E-15-6.34549854E-16 1.26829119E-17
-1.27176740E-16-2.01886263E-15 1.08147386E-15 1.28143496E-16-4.31489352E-16
 4.12802326E-16 1.66596143E+00-4.73890824E-01 8.74789921E-16-1.17054489E-16
-1.47352729E-17
    18 Alpha MO OE=2.82321513E-01
 1.15548627E-18-4.05812997E-18-6.33677360E-18-1.06892773E-16-3.28031315E-16
 1.68167314E-17 2.17849967E-17 2.89602468E-16 1.25251052E-15 7.10585768E-18
-3.89989737E-17-4.44537712E-16-2.21513826E-15-3.22676166E-17-4.26774399E-16
 4.19150375E-16 4.73890824E-01 1.66596143E+00-7.55361125E-16-2.02246971E-17
 4.59007907E-17
    19 Alpha MO OE=6.29556248E-01
-1.58737081E-02 5.64476653E-02 1.05793171E-15-1.59478126E-16-2.30926123E-16
-5.58704849E-02-4.14121616E-15-1.70000539E-16 2.81495033E-16 1.08249494E+00
 1.21464507E-14 5.29288614E-16-1.09929989E-17 7.15037073E-01-5.47062920E-01
-5.47062920E-01-1.46376323E-16 7.58373889E-17-6.03904248E-18-8.12770376E-01
-8.12770376E-01
    20 Alpha MO OE=7.83178075E-01
-4.10572589E-16 1.52393524E-15 1.28461375E-01-2.94762695E-18-1.40264310E-16
-9.92425543E-15-4.81060493E-01 2.86214224E-16 2.53292157E-17-2.34548718E-14
 1.46392501E+00-5.23468402E-19-1.84324054E-17 2.47548424E-15 1.47422496E-14
 1.52948962E-14 8.32869800E-16-2.73590720E-17-1.09634953E-17 8.76024213E-01
-8.76024213E-01
    21 Alpha MO OE=1.16198766E+00
 1.20756666E-01-4.20771269E-01 5.81866072E-16 5.47944147E-18 1.14467022E-16
 2.11560525E+00-2.29585472E-15 3.77238042E-17-2.40691193E-16 3.11469308E+00
 6.25329983E-15 1.99433617E-17-1.81831895E-17-1.91486804E+00-2.03641839E+00
-2.03641839E+00 3.52485624E-17-2.38420276E-17-1.73051485E-19-1.55760985E-01
-1.55760985E-01

