%chk=test0624
#p ept/6-31G* test

Gaussian Test Job 624 (Part 1):
 chlorobenzene

 0 1
 C,0,0.,0.,0.5001048942
 C,0,0.,0.,-2.2561514014
 C,0,0.,1.2044458651,-0.1771010321
 C,0,0.,1.1980053753,-1.561586957
 C,0,0.,-1.2044458651,-0.1771010321
 C,0,0.,-1.1980053753,-1.561586957
 Cl,0,0.,0.,2.2460641806
 H,0,0.,0.,-3.3310796086
 H,0,0.,2.1286240716,0.3686466091
 H,0,0.,2.131791085,-2.0943848833
 H,0,0.,-2.1286240716,0.3686466091
 H,0,0.,-2.131791085,-2.0943848833

 9 19


--Link1--
%chk=test0624
%nosave
#p ept=(ovgf,readorbitals)/6-31G* guess=read test

Gaussian Test Job 624 (Part 2):
 chlorobenzene OVGF

 0 1
 C,0,0.,0.,0.5001048942
 C,0,0.,0.,-2.2561514014
 C,0,0.,1.2044458651,-0.1771010321
 C,0,0.,1.1980053753,-1.561586957
 C,0,0.,-1.2044458651,-0.1771010321
 C,0,0.,-1.1980053753,-1.561586957
 Cl,0,0.,0.,2.2460641806
 H,0,0.,0.,-3.3310796086
 H,0,0.,2.1286240716,0.3686466091
 H,0,0.,2.131791085,-2.0943848833
 H,0,0.,-2.1286240716,0.3686466091
 H,0,0.,-2.131791085,-2.0943848833

 9 19


