#p har-pbepbe/6-31g* geom=modela test 5d force 

Gaussian Test Job 532 (Part 1):
Methanol Harris functional

0,1
o h me

--Link1--
#p har-pbepbe/6-31g* geom=modela test 5d force 

Gaussian Test Job 532 (Part 2):
Methanol cation Harris functional

1,2
o h me

--Link1--
#p har-pbepbe/6-31g* geom=modela test 5d freq

Gaussian Test Job 532 (Part 3):
Methanol Harris functional

0,1
o h me

--Link1--
#p har-pbepbe/6-31g* geom=modela test 5d freq

Gaussian Test Job 532 (Part 4):
Methanol cation Harris functional

1,2
o h me

