%mem=40mw
#p ghf/gen pseudo=read 5d 7F freq=numer polar scf=novaracc test

Gaussian Test Job 774:
HgO with ECP spin-orbit

0 1
Hg  0.0000   0.0000   0.0000
O   0.0000   0.0000   1.8400

!  (12s12p9d3f2g)/[6s6p4d3f2g] basis set from Ref 37. 
-HG  0
S   1  1.00
515.045436   1.000
S   1  1.00
32.499190  1.000
S   1  1.00
22.237722  1.000
S   1  1.00
15.336360 1.000
S   1  1.00
5.571357   1.000
S   1  1.00
1.663852   1.000
S   1  1.00
1.138617  1.000
S   1  1.00
0.778700 1.000
S   1  1.00
0.532166  1.000
S   1  1.00
0.171043   1.000
S   1  1.00
0.077308  1.000
S   1  1.00
0.035510 1.000
P   1  1.00
35.878921  1.000
P   1  1.00
23.052400  1.000
P   1  1.00
15.898207  1.000
P   1  1.00
6.187346 1.000
P   1  1.00
2.146179    1.000
P   1  1.00
1.298698  1.000
P   1  1.00
0.665038  1.000
P   1  1.00
0.279834 1.000
P   1  1.00
0.128381   1.000
P   1  1.00
0.055083   1.000
P   1  1.00
0.021655 1.000
P   1  1.00
0.007729 1.000
D   1  1.00
104.214776     1.000
D   1  1.00
15.362043   1.000
D   1  1.00
10.508334  1.000
D   1  1.00
7.247127  1.000
D   1  1.00
1.951178   1.000
D   1  1.00
0.907988     1.000
D   1  1.00
0.390814    1.000
D   1  1.00
0.151696  1.000
D   1  1.00
0.06  1.000
F   1  1.00
 1.905      1.000
F   1  1.00
 0.632       1.000
F   1  1.00
 0.21  1.000
****
-O  0
6-311G**
****

-HG  0
HG-ECP   5   60
H POTENTIAL         
 1
2          1.00000000        0.00000000
S-H POTENTIAL       
2 
2         12.413071   2750.774797
2        6.897913    490.267898
P-H POTENTIAL       
 4
2  11.310320    80.506984         -1610.013967 
2  10.210773   161.034824 1610.034824
2   5.939804     9.083416 -180.166832
2   5.019755    18.367773 180.367773
D-H POTENTIAL       
 4
2  8.407895    51.137256            -510.137256
2  8.214086    76.707459  510.138306
2 4.012612     6.561821  -60.561821
2 3.795398     9.818070 60.545380
F-H POTENTIAL       
 2
2   3.273106     9.429001 -60.286001
2   3.208321    12.494856 60.247428
G-H POTENTIAL       
 2
2  4.485296    -6.338414        30.169207
2  4.513200    -8.099863       -30.239945

