#p b3lyp/gen prop pseudo=read test pop=full int=grid=199302

Gaussian Test Job 534:
Cu wachters uncontracted, ECP and no functions on La

3 2
Cu    0.0    0.000000    0.000000      
La    0.0    0.0         1.500000

Cu 0
   S 1 1.0
1348800.0 1.0
   S 1 1.0
337200.  1.0
   S 1 1.0
50072.9  1.0
   S 1 1.0
11373.4  1.0
   S 1 1.0
3239.82  1.0
   S 1 1.0
1071.97  1.0
   S 1 1.0
395.099  1.0
   S 1 1.0
158.399  1.0
   S 1 1.0
67.3591  1.0
   S 1 1.0
22.2983  1.0
   S 1 1.0
9.39357   1.0
   S 1 1.0
2.57848  1.0
   S  1 1.0
.964080 1.0
   S  1 1.0
.113303 1.0
   S 1 1.0
.040791  1.0
  S 1 1.0
0.0122237 1.0
  P 1 1.0
2245.29  0.00226
  P 1 1.0
532.106  0.01841
  P 1 1.0
172.195  0.08646
  P 1 1.0
65.3239  0.25450
  P 1 1.0
27.0551  0.43419
  P 1 1.0
11.7435  0.33390
   P 1 1.0
4.69382  1.0
   P 1 1.0
1.90667  1.0
   P 1 1.0
.711445  1.0
  P 1 1.0
0.285  1.0
   D 1 1.0
53.6478 1.0
  D 1 1.0
15.0747 1.0
  D 1 1.0
5.10392 1.0
  D 1 1.0
1.72743 1.0
   D 1 1.0
0.528322 1.0
  D 1 1.0
0.1491 1.0
**** 

2 0
laecp 3 54
f-component
6
0      0.6403421     -0.0864727  0.0
1     26.9811967    -33.6524567  1.0
2      7.4780622    -59.5594475  2.0
2      2.3364873    -15.1332618  2.0
2      0.9083284     -4.8263727  2.0
2      0.2932768     -0.8658915  2.0
s-f component
6
0     86.7321968      2.8782136  0.0
1     36.2795884     47.7896578  1.0
2     16.8958863    133.8659916  2.0
2      5.7907750     66.5553143  2.0
2      1.7686257     24.1093686  2.0
2      0.4036790      6.7969476  2.0
p-f component
6
0    107.6316973      2.0081894  0.0
1     39.2492604     49.6039386  1.0
2     15.8048478    138.8098218  2.0
2      4.9233797     60.6949688  2.0
2      1.3795238     19.5911128  2.0
2      0.2981099      5.2749298  2.0
d-f component
6
0     76.5526601      2.9841839  0.0
1     39.1710741     38.7922490  1.0
2     19.3646917    139.0867532  2.0
2      5.7777291     63.6790783  2.0
2      1.0259657     26.8061443  2.0
2      0.8249295    -13.3307262  2.0


