%mem=64mw
#p b3lyp/6-31g* 5d test freq=roa cphf=rdfreq int=readefdep

Gaussian Test Job 721:
Methyloxirane ROA, open-shell, with fd functions

1,2
O          -0.780430   -0.751840   -0.233802
C          -0.989969    0.656217   -0.057774
C           0.202730    0.003655    0.490667
C           1.558109    0.135229   -0.144720
H          -1.813493    0.921727    0.595600
H          -0.900124    1.250192   -0.960952
H           0.203240   -0.209363    1.555947
H           1.466399    0.351841   -1.207986
H           2.126521   -0.788407   -0.031079
H           2.124845    0.939148    0.327833

0.0 589.3nm

 0.0000 0.0019  0.0827  1.0698 23.76769 0.3389 0.0
 0.0000 0.0058  0.3084  4.2215 32.95321 0.1718 0.0
 0.0000 0.0058  0.3084  4.2215 32.95321 0.1718 0.0
 0.0000 0.0058  0.3084  4.2215 32.95321 0.1718 0.0
 0.0140 0.0243 14.4401 53.3646 -0.01614 0.9719
 0.0140 0.0243 14.4401 53.3646 -0.01614 0.9719
 0.0140 0.0243 14.4401 53.3646 -0.01614 0.9719
 0.0140 0.0243 14.4401 53.3646 -0.01614 0.9719
 0.0140 0.0243 14.4401 53.3646 -0.01614 0.9719
 0.0140 0.0243 14.4401 53.3646 -0.01614 0.9719


