%kjob l103
#p opt=(qst2,tight,rdopt) nosymm test

Gaussian Test Job 1038 (Part 1):
QST2 with frozen atoms, Reactants

0 1
 H          0.778246    5.623726   -3.935863
 H         -1.497352    5.595003   -3.072525
 H         -1.814531    5.063647    1.354596
 H         -4.303183    2.605866    3.441460
 H         -2.446740    1.853948    4.870498
 H         -4.911103   -1.316372    2.584789
 H         -0.123591   -5.064783   -2.257600
 H          4.558451    3.065555    0.607069
 H          3.915081    5.321569   -0.029143
 H         -5.363674    0.289827   -2.042064
 H         -2.538092   -5.282120   -2.324862
 H         -1.339881   -5.713194   -0.259749
 H         -5.055766   -1.927350   -2.981824
 H         -4.085300    0.007965   -4.090173
 H         -2.754621   -1.978993    3.559846
 H          0.119878    4.360479    2.707669
 H         -0.668542    3.721106   -4.386949
 H          2.936773    4.325100    1.959676
 O          2.255068    3.411849   -0.369909
 O         -1.920391    2.845511    2.595758
 O         -0.323461    3.185059    0.475030
 O         -1.491044   -3.268390   -1.082779
 O         -0.441750   -0.556989   -0.085400
 O          0.228480    4.141175   -1.952816
 O         -3.036740   -1.681654    1.038130
 O         -2.980634   -0.716974   -1.927162
 O         -3.089942    0.441305    2.796596
 Si         3.455479    4.055707    0.595701
 Si        -0.977625    3.924231    1.807179
 Si        -1.378875   -4.868114   -1.485383
 Si         0.707640    3.122574   -0.783653
 Si        -3.448817   -1.151885    2.541733
 Si        -0.307191    4.773770   -3.388519
 Si        -4.409934   -0.594800   -2.770036
 Si        -2.971701    1.936240    3.477340
 Sn        -2.003452   -1.546753   -0.534593
 H         -0.205433    0.243585   -0.609565
 O          0.662509    1.556935   -1.376167
 H          1.549364    1.200536   -1.536888
 C          2.799254   -0.139674    5.326057
 C          2.837382   -1.575868    4.754652
 C          1.542187   -1.850657    3.995995
 C          1.403344   -0.875329    2.802668
 C          2.090239    0.844863    4.356611
 H          1.539685   -2.876650    3.602503
 H          2.909100   -2.264155    5.609792
 H          3.831119    0.195552    5.484648
 H          1.872160   -1.302575    1.911798
 H          2.946021    2.589535    5.286960
 O          2.083723    0.352652    3.006658
 O          0.026378   -0.679910    2.602367
 O          0.475114   -1.677820    4.928460
 O          3.896884   -1.791448    3.829551
 O          2.173308   -0.110443    6.599364
 C          2.797609    2.192043    4.277782
 H          2.172012    2.901457    3.714551
 O          4.079397    2.056755    3.677202
 H         -0.131800   -0.444040    1.659377
 H         -0.301552   -1.433274    4.391469
 H          4.730349   -1.591726    4.283015
 H          1.311089   -0.546591    6.463882
 H          3.951616    1.430616    2.942836
 H          1.060443    0.989831    4.706750

Notatoms=1-18

Products

0,1
 H        0.778246    5.623726   -3.935863
 H       -1.497352    5.595003   -3.072525
 H       -1.814531    5.063647    1.354596
 H       -4.303183    2.605866    3.441460
 H       -2.446740    1.853948    4.870498
 H       -4.911103   -1.316372    2.584790
 H       -0.123590   -5.064784   -2.257600
 H        4.558451    3.065555    0.607069
 H        3.915081    5.321569   -0.029143
 H       -5.363674    0.289827   -2.042064
 H       -2.538092   -5.282120   -2.324863
 H       -1.339882   -5.713194   -0.259749
 H       -5.055766   -1.927350   -2.981824
 H       -4.085300    0.007965   -4.090173
 H       -2.754621   -1.978993    3.559846
 H        0.119878    4.360479    2.707669
 H       -0.668542    3.721106   -4.386949
 H        2.936773    4.325100    1.959676
 O        2.270048    3.435996   -0.402742
 O       -1.903771    2.830903    2.588858
 O       -0.290829    3.180611    0.473349
 O       -1.538516   -3.234869   -1.360441
 O       -0.739421   -0.038507   -0.313956
 O        0.215913    4.289711   -1.905713
 O       -3.303039   -1.589884    0.964365
 O       -2.961723   -0.770297   -1.845896
 O       -3.031126    0.421627    2.828578
 Si       3.460424    4.051463    0.596553
 Si      -0.975235    3.922895    1.802386
 Si      -1.384099   -4.866568   -1.514275
 Si       0.716589    3.214735   -0.808546
 Si      -3.474693   -1.152760    2.532289
 Si      -0.313543    4.795102   -3.396300
 Si      -4.365006   -0.610417   -2.729798
 Si      -2.969023    1.930184    3.477088
 Sn      -1.999189   -1.670909   -0.402821
 H       -0.426223    0.608319   -1.002798
 O        0.651773    1.711123   -1.560443
 H        1.520676    1.373582   -1.823620
 C        2.285221   -1.413030    3.441052
 C        2.525547   -2.747324    2.699101
 C        1.210519   -3.239648    2.100625
 C        0.670695   -2.241450    1.042935
 C        1.271029   -0.512475    2.685647
 H        1.357917   -4.208214    1.602862
 H        2.875276   -3.475144    3.445086
 H        3.242803   -0.885900    3.518596
 H        1.086431   -2.479527    0.056908
 H        1.821154    1.284605    3.724662
 O        1.177134   -0.882472    1.287687
 O       -0.697596   -2.245462    1.085527
 O        0.280386   -3.366119    3.170199
 O        3.449784   -2.628606    1.621847
 O        1.840154   -1.629584    4.768879
 C        1.669382    0.954951    2.692402
 H        0.861576    1.553092    2.250630
 O        2.892930    1.167905    1.992757
 H       -0.000088   -0.168782    0.356870
 H       -0.585660   -3.155116    2.761403
 H        4.326147   -2.461196    2.001073
 H        1.083091   -2.240718    4.682166
 H        2.872081    0.572484    1.223855
 H        0.287436   -0.626067    3.155376

--Link1--
%kjob l103
#p opt=(qst2,tight,modred) nosymm test

Gaussian Test Job 1038 (Part 2):
QST with modred to freeze atoms, consistently Reactants

0 1
 H          0.778246    5.623726   -3.935863
 H         -1.497352    5.595003   -3.072525
 H         -1.814531    5.063647    1.354596
 H         -4.303183    2.605866    3.441460
 H         -2.446740    1.853948    4.870498
 H         -4.911103   -1.316372    2.584789
 H         -0.123591   -5.064783   -2.257600
 H          4.558451    3.065555    0.607069
 H          3.915081    5.321569   -0.029143
 H         -5.363674    0.289827   -2.042064
 H         -2.538092   -5.282120   -2.324862
 H         -1.339881   -5.713194   -0.259749
 H         -5.055766   -1.927350   -2.981824
 H         -4.085300    0.007965   -4.090173
 H         -2.754621   -1.978993    3.559846
 H          0.119878    4.360479    2.707669
 H         -0.668542    3.721106   -4.386949
 H          2.936773    4.325100    1.959676
 O          2.255068    3.411849   -0.369909
 O         -1.920391    2.845511    2.595758
 O         -0.323461    3.185059    0.475030
 O         -1.491044   -3.268390   -1.082779
 O         -0.441750   -0.556989   -0.085400
 O          0.228480    4.141175   -1.952816
 O         -3.036740   -1.681654    1.038130
 O         -2.980634   -0.716974   -1.927162
 O         -3.089942    0.441305    2.796596
 Si         3.455479    4.055707    0.595701
 Si        -0.977625    3.924231    1.807179
 Si        -1.378875   -4.868114   -1.485383
 Si         0.707640    3.122574   -0.783653
 Si        -3.448817   -1.151885    2.541733
 Si        -0.307191    4.773770   -3.388519
 Si        -4.409934   -0.594800   -2.770036
 Si        -2.971701    1.936240    3.477340
 Sn        -2.003452   -1.546753   -0.534593
 H         -0.205433    0.243585   -0.609565
 O          0.662509    1.556935   -1.376167
 H          1.549364    1.200536   -1.536888
 C          2.799254   -0.139674    5.326057
 C          2.837382   -1.575868    4.754652
 C          1.542187   -1.850657    3.995995
 C          1.403344   -0.875329    2.802668
 C          2.090239    0.844863    4.356611
 H          1.539685   -2.876650    3.602503
 H          2.909100   -2.264155    5.609792
 H          3.831119    0.195552    5.484648
 H          1.872160   -1.302575    1.911798
 H          2.946021    2.589535    5.286960
 O          2.083723    0.352652    3.006658
 O          0.026378   -0.679910    2.602367
 O          0.475114   -1.677820    4.928460
 O          3.896884   -1.791448    3.829551
 O          2.173308   -0.110443    6.599364
 C          2.797609    2.192043    4.277782
 H          2.172012    2.901457    3.714551
 O          4.079397    2.056755    3.677202
 H         -0.131800   -0.444040    1.659377
 H         -0.301552   -1.433274    4.391469
 H          4.730349   -1.591726    4.283015
 H          1.311089   -0.546591    6.463882
 H          3.951616    1.430616    2.942836
 H          1.060443    0.989831    4.706750

2
3 f
29 21 31 f
4

Products

0,1
 H        0.778246    5.623726   -3.935863
 H       -1.497352    5.595003   -3.072525
 H       -1.814531    5.063647    1.354596
 H       -4.303183    2.605866    3.441460
 H       -2.446740    1.853948    4.870498
 H       -4.911103   -1.316372    2.584790
 H       -0.123590   -5.064784   -2.257600
 H        4.558451    3.065555    0.607069
 H        3.915081    5.321569   -0.029143
 H       -5.363674    0.289827   -2.042064
 H       -2.538092   -5.282120   -2.324863
 H       -1.339882   -5.713194   -0.259749
 H       -5.055766   -1.927350   -2.981824
 H       -4.085300    0.007965   -4.090173
 H       -2.754621   -1.978993    3.559846
 H        0.119878    4.360479    2.707669
 H       -0.668542    3.721106   -4.386949
 H        2.936773    4.325100    1.959676
 O        2.270048    3.435996   -0.402742
 O       -1.903771    2.830903    2.588858
 O       -0.290829    3.180611    0.473349
 O       -1.538516   -3.234869   -1.360441
 O       -0.739421   -0.038507   -0.313956
 O        0.215913    4.289711   -1.905713
 O       -3.303039   -1.589884    0.964365
 O       -2.961723   -0.770297   -1.845896
 O       -3.031126    0.421627    2.828578
 Si       3.460424    4.051463    0.596553
 Si      -0.975235    3.922895    1.802386
 Si      -1.384099   -4.866568   -1.514275
 Si       0.716589    3.214735   -0.808546
 Si      -3.474693   -1.152760    2.532289
 Si      -0.313543    4.795102   -3.396300
 Si      -4.365006   -0.610417   -2.729798
 Si      -2.969023    1.930184    3.477088
 Sn      -1.999189   -1.670909   -0.402821
 H       -0.426223    0.608319   -1.002798
 O        0.651773    1.711123   -1.560443
 H        1.520676    1.373582   -1.823620
 C        2.285221   -1.413030    3.441052
 C        2.525547   -2.747324    2.699101
 C        1.210519   -3.239648    2.100625
 C        0.670695   -2.241450    1.042935
 C        1.271029   -0.512475    2.685647
 H        1.357917   -4.208214    1.602862
 H        2.875276   -3.475144    3.445086
 H        3.242803   -0.885900    3.518596
 H        1.086431   -2.479527    0.056908
 H        1.821154    1.284605    3.724662
 O        1.177134   -0.882472    1.287687
 O       -0.697596   -2.245462    1.085527
 O        0.280386   -3.366119    3.170199
 O        3.449784   -2.628606    1.621847
 O        1.840154   -1.629584    4.768879
 C        1.669382    0.954951    2.692402
 H        0.861576    1.553092    2.250630
 O        2.892930    1.167905    1.992757
 H       -0.000088   -0.168782    0.356870
 H       -0.585660   -3.155116    2.761403
 H        4.326147   -2.461196    2.001073
 H        1.083091   -2.240718    4.682166
 H        2.872081    0.572484    1.223855
 H        0.287436   -0.626067    3.155376

5
3 f
48,43,51,36 f
25,36,51 f
l1 26,36,51,22 f
29 21 31 f

--Link1--
%kjob l103
#p opt=(qst2,tight,modred) nosymm test

Gaussian Test Job 1038 (Part 3):
QST with modred to freeze atoms, inconsistently Reactants

0 1
 H          0.778246    5.623726   -3.935863
 H         -1.497352    5.595003   -3.072525
 H         -1.814531    5.063647    1.354596
 H         -4.303183    2.605866    3.441460
 H         -2.446740    1.853948    4.870498
 H         -4.911103   -1.316372    2.584789
 H         -0.123591   -5.064783   -2.257600
 H          4.558451    3.065555    0.607069
 H          3.915081    5.321569   -0.029143
 H         -5.363674    0.289827   -2.042064
 H         -2.538092   -5.282120   -2.324862
 H         -1.339881   -5.713194   -0.259749
 H         -5.055766   -1.927350   -2.981824
 H         -4.085300    0.007965   -4.090173
 H         -2.754621   -1.978993    3.559846
 H          0.119878    4.360479    2.707669
 H         -0.668542    3.721106   -4.386949
 H          2.936773    4.325100    1.959676
 O          2.255068    3.411849   -0.369909
 O         -1.920391    2.845511    2.595758
 O         -0.323461    3.185059    0.475030
 O         -1.491044   -3.268390   -1.082779
 O         -0.441750   -0.556989   -0.085400
 O          0.228480    4.141175   -1.952816
 O         -3.036740   -1.681654    1.038130
 O         -2.980634   -0.716974   -1.927162
 O         -3.089942    0.441305    2.796596
 Si         3.455479    4.055707    0.595701
 Si        -0.977625    3.924231    1.807179
 Si        -1.378875   -4.868114   -1.485383
 Si         0.707640    3.122574   -0.783653
 Si        -3.448817   -1.151885    2.541733
 Si        -0.307191    4.773770   -3.388519
 Si        -4.409934   -0.594800   -2.770036
 Si        -2.971701    1.936240    3.477340
 Sn        -2.003452   -1.546753   -0.534593
 H         -0.205433    0.243585   -0.609565
 O          0.662509    1.556935   -1.376167
 H          1.549364    1.200536   -1.536888
 C          2.799254   -0.139674    5.326057
 C          2.837382   -1.575868    4.754652
 C          1.542187   -1.850657    3.995995
 C          1.403344   -0.875329    2.802668
 C          2.090239    0.844863    4.356611
 H          1.539685   -2.876650    3.602503
 H          2.909100   -2.264155    5.609792
 H          3.831119    0.195552    5.484648
 H          1.872160   -1.302575    1.911798
 H          2.946021    2.589535    5.286960
 O          2.083723    0.352652    3.006658
 O          0.026378   -0.679910    2.602367
 O          0.475114   -1.677820    4.928460
 O          3.896884   -1.791448    3.829551
 O          2.173308   -0.110443    6.599364
 C          2.797609    2.192043    4.277782
 H          2.172012    2.901457    3.714551
 O          4.079397    2.056755    3.677202
 H         -0.131800   -0.444040    1.659377
 H         -0.301552   -1.433274    4.391469
 H          4.730349   -1.591726    4.283015
 H          1.311089   -0.546591    6.463882
 H          3.951616    1.430616    2.942836
 H          1.060443    0.989831    4.706750

2
3 f
29 21 31 f
4

Products

0,1
 H        0.778246    5.623726   -3.935863
 H       -1.497352    5.595003   -3.072525
 H       -1.814531    5.063647    1.354596
 H       -4.303183    2.605866    3.441460
 H       -2.446740    1.853948    4.870498
 H       -4.911103   -1.316372    2.584790
 H       -0.123590   -5.064784   -2.257600
 H        4.558451    3.065555    0.607069
 H        3.915081    5.321569   -0.029143
 H       -5.363674    0.289827   -2.042064
 H       -2.538092   -5.282120   -2.324863
 H       -1.339882   -5.713194   -0.259749
 H       -5.055766   -1.927350   -2.981824
 H       -4.085300    0.007965   -4.090173
 H       -2.754621   -1.978993    3.559846
 H        0.119878    4.360479    2.707669
 H       -0.668542    3.721106   -4.386949
 H        2.936773    4.325100    1.959676
 O        2.270048    3.435996   -0.402742
 O       -1.903771    2.830903    2.588858
 O       -0.290829    3.180611    0.473349
 O       -1.538516   -3.234869   -1.360441
 O       -0.739421   -0.038507   -0.313956
 O        0.215913    4.289711   -1.905713
 O       -3.303039   -1.589884    0.964365
 O       -2.961723   -0.770297   -1.845896
 O       -3.031126    0.421627    2.828578
 Si       3.460424    4.051463    0.596553
 Si      -0.975235    3.922895    1.802386
 Si      -1.384099   -4.866568   -1.514275
 Si       0.716589    3.214735   -0.808546
 Si      -3.474693   -1.152760    2.532289
 Si      -0.313543    4.795102   -3.396300
 Si      -4.365006   -0.610417   -2.729798
 Si      -2.969023    1.930184    3.477088
 Sn      -1.999189   -1.670909   -0.402821
 H       -0.426223    0.608319   -1.002798
 O        0.651773    1.711123   -1.560443
 H        1.520676    1.373582   -1.823620
 C        2.285221   -1.413030    3.441052
 C        2.525547   -2.747324    2.699101
 C        1.210519   -3.239648    2.100625
 C        0.670695   -2.241450    1.042935
 C        1.271029   -0.512475    2.685647
 H        1.357917   -4.208214    1.602862
 H        2.875276   -3.475144    3.445086
 H        3.242803   -0.885900    3.518596
 H        1.086431   -2.479527    0.056908
 H        1.821154    1.284605    3.724662
 O        1.177134   -0.882472    1.287687
 O       -0.697596   -2.245462    1.085527
 O        0.280386   -3.366119    3.170199
 O        3.449784   -2.628606    1.621847
 O        1.840154   -1.629584    4.768879
 C        1.669382    0.954951    2.692402
 H        0.861576    1.553092    2.250630
 O        2.892930    1.167905    1.992757
 H       -0.000088   -0.168782    0.356870
 H       -0.585660   -3.155116    2.761403
 H        4.326147   -2.461196    2.001073
 H        1.083091   -2.240718    4.682166
 H        2.872081    0.572484    1.223855
 H        0.287436   -0.626067    3.155376

5
3 f
48,43,51,36 f
25,36,51 f
l1 26,36,51,22 f

