#p cas(6,6)/d95 mp2 test iop(5/42=5) guess=cards

Gaussian Test Job 300:
Water localize Strongly occ (42=5)
r = re  Full CI = -76.1579  SCF mp2 = -75.1493 cas mp2 = -76.1529
 
0 1
O
H  1 .975 
H  1 .975 2  110.5

(4E20.8)
   -1
   0.5809834509E+00    0.4612416518E+00   -0.6437319952E-04    0.1724432549E-02
   0.1282235396E-14    0.5417658499E-13    0.1639966912E-02   -0.9146282229E-15
  -0.6407549694E-13   -0.4538843604E-03    0.6038992958E-04   -0.1131035485E-03
   0.6038992969E-04   -0.1131035471E-03
   0.1334121797E+00    0.1853914817E+00   -0.5303246663E+00   -0.5299350920E+00
   0.3863110908E-14   -0.2945145570E-12    0.2660725832E+00    0.1373283727E-13
  -0.1082180377E-11    0.1610605413E+00   -0.2639758329E-01    0.3595858134E-01
  -0.2639758329E-01    0.3595858133E-01
  -0.2049774032E-14   -0.3944732100E-14    0.1949291162E-13   -0.8116333552E-14
   0.7266843707E+00    0.5741168636E-14   -0.2542378054E-14    0.4114868444E+00
   0.1573878819E-14   -0.3558296705E-15    0.8542390063E-14    0.3610720662E-14
  -0.1133921899E-13    0.5380520049E-14
   0.7700779642E-13    0.1240395916E-12   -0.3110890228E-12   -0.4479190461E-12
  -0.1478805861E-13    0.5807753928E+00    0.6441113412E-12   -0.3119296374E-14
   0.1554735923E+00   -0.1190754528E-11    0.2567325943E+00    0.1459733219E+00
  -0.2567325943E+00   -0.1459733219E+00
   0.3905529774E-01    0.5374494227E-01   -0.1472546541E+00   -0.2318936772E-01
   0.7135148045E-14    0.2943196465E-13   -0.5835334348E+00   -0.8143363781E-14
  -0.1126183232E-11   -0.2661811895E+00   -0.1976953180E+00   -0.6686152705E-01
  -0.1976953180E+00   -0.6686152706E-01
  -0.7434161111E-01   -0.1101220256E+00    0.5485597669E+00    0.6909549407E-01
  -0.8803094312E-14   -0.2684563691E-12    0.8302929439E+00    0.1554538664E-13
   0.8730419296E-13   -0.3621489191E+00   -0.3993284612E+00   -0.1686252996E+00
  -0.3993284612E+00   -0.1686252996E+00
   0.2436260622E-15    0.5240420329E-13   -0.3564558479E-12    0.2831568912E-12
  -0.1598420828E-13    0.9543714687E+00    0.8326712234E-13    0.1513309881E-13
  -0.2249284123E+00    0.1606902882E-12   -0.4293196936E+00   -0.2298351778E+00
   0.4293196936E+00    0.2298351778E+00
  -0.3511115992E-15   -0.5956973609E-14    0.1995977107E-13   -0.9611277953E-14
   0.9033704150E+00    0.7948153001E-14    0.2383990934E-14   -0.1083894303E+01
   0.1854782268E-13    0.9168422326E-15   -0.2090471003E-13   -0.1957850061E-13
  -0.1375243306E-13    0.3467047806E-13
   0.1283075058E+00    0.2292232696E+00   -0.1872815562E+01    0.2899484111E+01
   0.1859729719E-13    0.6446421995E-13    0.1140636837E+00   -0.3737587838E-13
  -0.9358938964E-12    0.6668121052E+00   -0.5052118810E+00   -0.6261752780E+00
  -0.5052118810E+00   -0.6261752780E+00
   0.5688509536E-01    0.8925329979E-01   -0.4718964133E+00    0.3538875636E+00
   0.8040658731E-14   -0.1266541319E-11    0.2231281476E+00   -0.1901551662E-13
   0.4048501087E-11   -0.7241921139E+00    0.8545145702E+00   -0.5409437552E+00
   0.8545145702E+00   -0.5409437552E+00
  -0.2469708542E-01   -0.2745401338E-01   -0.1026966129E+00    0.1368414032E+01
  -0.5127135974E-14    0.2691385028E-12   -0.4785958644E+00    0.4525987019E-14
   0.1335741062E-12    0.1221325170E+01    0.1453382802E+00   -0.1141655579E+01
   0.1453382802E+00   -0.1141655579E+01
   0.1731281962E+01   -0.1877196090E+01    0.3943491937E+00   -0.3563553517E+00
   0.5076089674E-14    0.2790599686E-14    0.1032663537E-01    0.3761150000E-14
   0.4230068969E-13   -0.6964832307E-01    0.6368718853E-02    0.8876776825E-01
   0.6368718853E-02    0.8876776825E-01
  -0.4802087378E-13    0.3826601205E-13   -0.5061789236E-13    0.5624752447E-13
   0.4934918658E-15    0.4960126290E+00    0.4670586432E-12   -0.3944144319E-14
  -0.2097695541E+01   -0.1384061738E-11   -0.1014405239E+00    0.1912136955E+01
   0.1014405239E+00   -0.1912136955E+01
   0.5984125041E-13    0.1383609525E-12   -0.4859580431E-12   -0.2361834290E-12
   0.8063909445E-14   -0.5739054117E-01   -0.2464752790E-12   -0.1913928398E-13
   0.5327789121E+00    0.5739122846E-12   -0.8773515606E+00    0.7959633316E+00
   0.8773515606E+00   -0.7959633316E+00




H  1 .975 
H  1 .975 2  110.5

H  1 1.46 
H  1 1.46 2  110.5

H  1 1.95 
H  1 1.95 2  110.5


