%chk=test0374
#p cas(4,4,npair=4)/sto-3g test pop=full scfcon=7 guess=(lowsym,cards) 

Gaussian Test Job 374 (Part 1):
GVB CAS  test job   CAS(2,2) opt geom 6-31g*
part II GVB 4 GVB pair     STO-3G

0 1
1            .915000     .000000   -1.235000
6            .000000     .000000    -.669000
6            .000000     .000000     .669000
1           -.915000     .000000   -1.235000
1            .915000     .000000    1.235000
1           -.915000     .000000    1.235000

1 2 4 5 6 7 0 3 8 9
(5D15.8)
    1 Alpha OE=-0.11020332D+02
-0.17347838D-01 0.10035253D+01 0.44312593D-03 0.00000000D+00-0.11098986D-09
 0.25408200D-02 0.44364166D-02-0.19284514D-01 0.00000000D+00-0.38957706D-09
-0.20023454D-01-0.17347838D-01 0.26333800D-02 0.26333806D-02
    2 Alpha OE=-0.11019555D+02
-0.26333804D-02-0.44364166D-02 0.19284514D-01 0.00000000D+00 0.47053599D-10
-0.20023455D-01-0.10035253D+01-0.44312567D-03 0.00000000D+00-0.18225807D-10
 0.25408202D-02-0.26333804D-02 0.17347838D-01 0.17347838D-01
    3 Alpha OE=-0.74980798D+00
 0.36255057D-01-0.14576441D-01 0.63254840D-01 0.00000000D+00-0.87800431D-03
-0.54009862D-01 0.93087941D-01-0.35040256D+00 0.00000000D+00-0.39399383D+00
 0.25276017D+00-0.51673847D-01-0.53368528D+00 0.73237657D-01
    4 Alpha OE=-0.97826132D+00
 0.53368528D+00-0.93087941D-01 0.35040256D+00 0.00000000D+00 0.39399383D+00
 0.25276017D+00 0.14576441D-01-0.63254840D-01 0.00000000D+00 0.87800431D-03
-0.54009862D-01-0.73237657D-01-0.36255057D-01 0.51673847D-01
    5 Alpha OE=-0.60388359D+00
-0.51673847D-01-0.14576440D-01 0.63254840D-01 0.00000000D+00 0.87800431D-03
-0.54009862D-01 0.93087941D-01-0.35040256D+00 0.00000000D+00 0.39399383D+00
 0.25276017D+00 0.36255057D-01 0.73237657D-01-0.53368528D+00
    6 Alpha OE=-0.46520246D+00
 0.73237657D-01 0.93087941D-01-0.35040256D+00 0.00000000D+00 0.39399383D+00
-0.25276017D+00-0.14576440D-01 0.63254840D-01 0.00000000D+00 0.87800431D-03
 0.54009862D-01-0.53368528D+00-0.51673847D-01 0.36255057D-01
    7 Alpha OE=-0.53338331D+00
 0.53840578D-01 0.10133914D+00-0.37396694D+00 0.00000000D+00-0.73960228D-10
 0.41166913D+00 0.10133914D+00-0.37396694D+00 0.00000000D+00-0.66356602D-10
-0.41166913D+00 0.53840578D-01 0.53840578D-01 0.53840578D-01
    8 Alpha OE=-0.32442636D+00
 0.00000000D+00 0.00000000D+00 0.00000000D+00 0.63548425D+00 0.00000000D+00
 0.00000000D+00 0.00000000D+00 0.00000000D+00 0.63548425D+00 0.00000000D+00
 0.00000000D+00 0.00000000D+00 0.00000000D+00 0.00000000D+00
    9 Alpha OE= 0.98063240D+00
 0.00000000D+00 0.00000000D+00 0.00000000D+00 0.81010223D+00 0.00000000D+00
 0.00000000D+00 0.00000000D+00 0.00000000D+00-0.81010223D+00 0.00000000D+00
 0.00000000D+00 0.00000000D+00 0.00000000D+00 0.00000000D+00
   10 Alpha OE= 0.70444034D+00
-0.65165805D-02-0.62250933D-02-0.20759634D-02 0.00000000D+00 0.12207109D+00
-0.16360808D-01 0.13074993D+00-0.83191645D+00 0.00000000D+00-0.83179901D+00
 0.50186793D+00-0.18238734D-01 0.12709043D+01 0.23104597D-01
   11 Alpha OE= 0.94725759D+00
 0.23104598D-01 0.13074993D+00-0.83191645D+00 0.00000000D+00 0.83179901D+00
-0.50186793D+00-0.62250932D-02-0.20759643D-02 0.00000000D+00-0.12207109D+00
 0.16360808D-01 0.12709043D+01-0.18238734D-01-0.65165794D-02
   12 Alpha OE= 0.63519070D+00
-0.18238732D-01-0.62250931D-02-0.20759647D-02 0.00000000D+00-0.12207109D+00
-0.16360809D-01 0.13074993D+00-0.83191645D+00 0.00000000D+00 0.83179901D+00
 0.50186793D+00-0.65165804D-02 0.23104597D-01 0.12709043D+01
   13 Alpha OE= 0.70315646D+00
-0.12709043D+01-0.13074993D+00 0.83191645D+00 0.00000000D+00 0.83179901D+00
 0.50186793D+00 0.62250934D-02 0.20759628D-02 0.00000000D+00-0.12207109D+00
-0.16360808D-01-0.23104596D-01 0.65165793D-02 0.18238736D-01
   14 Alpha OE= 0.31641547D+00
-0.32204414D-01-0.14944993D+00 0.10781115D+01 0.00000000D+00-0.28838829D-09
-0.10637349D+01 0.14944993D+00-0.10781115D+01 0.00000000D+00 0.46335320D-10
-0.10637349D+01-0.32204414D-01 0.32204414D-01 0.32204414D-01

9 14
6 7
10 12
11 13
3 4

--Link1--
%chk=test0374
%nosave
#p cas(4,4,npair=4)/6-31g* test pop=full opt
scfcon=7 geom=check guess=(lowsym,read) 

Gaussian Test Job 374 (Part 2):
GVB CAS  test job   CAS(2,2) opt geom 6-31g* 
part III GVB 4 GVB pair    6-31g* from STO-3G 

0 1

1 2 4 5 6 7 0 3 8 9
9 14
6 7
10 12
11 13
3 4

