#p hf/6-31G(d) freq=(anharm,readanharm,Step=50) test

Gaussian Test Job 622:
ch2fcl anharmonic vibrations

0 1
 6   0.000000    0.000000    0.494685
 9   0.000000    1.086367   -0.286469
 9   0.000000   -1.086367   -0.286469
 1   0.896351    0.000000    1.094163
 1  -0.896351    0.000000    1.094163

 tolcor=0.25 fx3min=10.0 delfre=200.0 scharm=1.5D-05 normal

