#p hf/sto-3g prop=(read,efg,opt) pop=mk scf=tight test

Gaussian Test Job 1034:
ESP properties with potential optimization and charge fitting

0 1
6           0        0.000000    0.000000   -0.548229
8           0        0.000000    0.000000    0.702363
1           0        0.000000    0.940930   -1.164763
1           0        0.000000   -0.940930   -1.164763

3.0 0.0 0.0
0.1 0.2 4.0

0.0 0.0 1.8

