%mem=128000000,256000000
#p svwn5/sto-3g int(grid=ultrafine) freq=numer pbc=nrecip=-100 test

Gaussian Test Job 820:
BN 2d periodic frequencies

0  1
5             0       -0.631529    0.364286    0.000000
7             0        0.631529   -0.364286    0.000000
Tv            0        2.525558    0.000966    0.000000
Tv            0       -1.263616    2.186666    0.000000




