#p dreiding=softonly iop33(4=2) test

Gaussian Test Job 809:
enkephalin Tinker Amber98:
 Bond Stretching       6.6889     ( 0.010659)
 Angle Bending         7.7218     ( 0.012305)
 Improper Torsion      0.0000     ( 0.000000)
 Torsional Angle      17.3719     ( 0.027684)
 Van der Waals       471.4644     ( 0.751326)
 Charge-Charge       -99.3959     (-0.158397)

0 1
N-MM20-0.2943 0.000000 0.000000 0.000000
C-MM1--0.01 0.000000 0.000000 1.500000
C-MM2-0.6163 1.412520 0.000000 2.033747
O-MM24--0.5722 2.282886 -0.727569 1.584852
H-MM29-0.1642 -0.679879 0.679879 -0.340483
H-MM29-0.1642 -0.277258 -0.920652 -0.340483
H-MM29-0.1642 0.920652 0.277258 -0.340483
H-MM35-0.0895 -0.504720 0.916552 1.870526
H-MM35-0.0895 -0.504720 -0.916552 1.870526
N-MM14--0.4157 1.587270 0.874126 3.034230
C-MM1--0.0014 2.886035 1.023156 3.684307
C-MM2-0.5973 3.067905 0.021038 4.799108
O-MM24--0.5679 2.125483 -0.506053 5.366926
H-MM29-0.2719 0.785643 1.432258 3.327969
H-MM35-0.0876 3.693611 0.857038 2.941121
C-MM1--0.0152 2.996312 2.432392 4.295448
C-MM3--0.0011 4.428872 2.720574 4.634156
C-MM3--0.1906 5.275428 3.259936 3.672630
C-MM3--0.1906 4.909822 2.448260 5.909551
C-MM3--0.2341 6.602934 3.526985 3.986500
C-MM3--0.2341 6.237328 2.715309 6.223420
C-MM2-0.3226 7.083884 3.254671 5.261895
O-MM22--0.5579 8.382738 3.515956 5.568990
H-MM34-0.0295 2.381823 2.483112 5.218449
H-MM34-0.0295 2.632947 3.181911 3.561768
H-MM33-0.1699 4.894821 3.475436 2.663325
H-MM33-0.1699 4.239886 2.021426 6.670470
H-MM33-0.1656 7.272870 3.953819 3.225580
H-MM33-0.1656 6.617935 2.499808 7.232726
H-MM31-0.3992 8.528915 3.262526 6.493818
N-MM14--0.4157 4.357301 -0.211541 5.080117
C-MM1--0.0252 4.740517 -1.151470 6.129535
C-MM2-0.5973 6.190549 -0.989480 6.518465
O-MM24--0.5679 7.064699 -1.739811 6.116887
H-MM29-0.2719 5.063002 0.287834 4.538813
H-MM35-0.0698 4.122483 -0.969749 7.033477
H-MM35-0.0698 4.598837 -2.190642 5.766012
N-MM14--0.4157 6.393162 0.051955 7.336977
C-MM1--0.0252 7.730377 0.375037 7.825930
C-MM2-0.5973 8.653814 0.770903 6.698698
O-MM24--0.5679 8.722070 1.914025 6.277968
H-MM29-0.2719 5.585074 0.612185 7.608152
H-MM35-0.0698 7.670121 1.228360 8.533255
H-MM35-0.0698 8.166208 -0.513949 8.327783
N-MM14--0.4157 9.369673 -0.260449 6.230233
C-MM1--0.0024 10.321312 -0.080648 5.137688
C-MM2-0.5973 9.628692 -0.052518 3.796201
O-MM24--0.5679 10.061707 0.581486 2.848079
H-MM29-0.2719 9.229741 -1.174900 6.659882
H-MM35-0.0978 10.855170 0.884004 5.266303
C-MM1--0.0343 11.319788 -1.253057 5.127489
C-MM3-0.0118 12.297500 -1.068330 4.005011
C-MM3--0.1256 13.372470 -0.200058 4.155485
C-MM3--0.1256 12.128542 -1.765423 2.814375
C-MM3--0.1704 14.278482 -0.028878 3.115322
C-MM3--0.1704 13.034555 -1.594243 1.774212
C-MM3--0.1072 14.109525 -0.725970 1.924686
H-MM34-0.0295 10.768490 -2.205612 4.983233
H-MM34-0.0295 11.867272 -1.279491 6.092716
H-MM33-0.133 13.506177 0.351598 5.097716
H-MM33-0.133 11.277847 -2.452545 2.695295
H-MM33-0.143 15.129178 0.658245 3.234402
H-MM33-0.143 12.900848 -2.145899 0.831982
H-MM33-0.1297 14.826513 -0.590504 1.101536
N-MM14--0.3821 8.510019 -0.789927 3.776246
C-MM1--0.2441 7.697064 -0.890377 2.567687
C-MM2-0.8013 6.828062 0.330049 2.379282
O-MM25--0.8105 6.390152 0.879940 3.412894
H-MM29-0.2681 8.243529 -1.278952 4.630786
H-MM35-0.1277 8.359797 -0.977399 1.681509
C-MM1-0.0342 6.770849 -2.116317 2.671600
C-MM1-0.0018 7.618301 -3.402171 2.673500
S-MM26--0.2737 6.509525 -4.842426 2.766684
C-MM1--0.0536 7.821353 -6.103917 2.778910
H-MM34-0.0241 6.080126 -2.131256 1.802820
H-MM34-0.0241 6.186742 -2.058313 3.613700
H-MM35-0.044 8.332624 -3.371708 3.522567
H-MM35-0.044 8.254836 -3.425573 1.764449
H-MM35-0.0684 7.408368 -7.132757 2.833953
H-MM35-0.0684 8.538876 -5.949601 3.611644
H-MM35-0.0684 8.486677 -6.020526 1.894325
O-MM25--0.8105 6.612796 0.697479 1.204056

@GAUSS_EXEDIR:amber98.prm

