#p opt=(tight,nomicro) freq amber geom=(nodist,noangle,nodihed) test

Gaussian Test Job 431:
Cyclic (Thr-Lys-Pro-Arg-Gly)

0,1
N-N        1.303424      .186816     4.136379
C-CT       1.167936    -1.168338     3.606228
C-C        2.534419    -1.622216     3.079821
O-O        3.084628    -2.603820     3.579456
H-H         .801996      .905233     3.633987
H-H1        .871854    -1.833302     4.418178
C-CT        .071342    -1.186177     2.520974
O-OH      -1.165011     -.794873     3.084899
C-CT       -.119821    -2.568150     1.882995
H-H1        .332705     -.474212     1.736581
H-HO      -1.402908    -1.428625     3.765753
H-HC       -.923252    -2.518876     1.146111
H-HC       -.384976    -3.299417     2.647862
H-HC        .793960    -2.880254     1.377601
N-N        3.090491     -.868749     2.118757
C-CT       4.499648     -.898202     1.754201
C-C        4.960992      .503465     1.300501
O-O        5.899145     1.007268     1.918459
H-H        2.555168     -.092732     1.755188
H-H1       5.046182    -1.121963     2.672642
C-CT       4.815146    -2.037524      .765166
C-CT       6.333293    -2.245276      .643943
C-CT       6.680311    -3.490675     -.180450
C-CT       8.198681    -3.694853     -.189540
N-N3       8.586273    -4.902643     -.938312
H-HC       4.389094    -1.835180     -.214406
H-HC       4.372936    -2.960273     1.141815
H-HC       6.752467    -2.364885     1.644438
H-HC       6.786702    -1.369563      .177724
H-HC       6.319505    -3.367092    -1.202674
H-HC       6.205895    -4.364915      .267912
H-HP       8.548025    -3.790685      .838827
H-HP       8.675040    -2.826123     -.643891
H-H        9.590251    -5.009790     -.906050
H-H        8.287816    -4.815097    -1.898967
H-H        8.149676    -5.712684     -.522202
N-N        4.342985     1.166193      .291420
C-CT       4.665384     2.549296     -.064927
C-C        4.275862     3.525227     1.057840
O-O        5.163789     4.094028     1.693480
H-H1       5.739020     2.636043     -.238971
C-CT       3.943677     2.834365    -1.388792
C-CT       2.787242     1.838042    -1.401237
C-CT       3.362021      .638278     -.652985
H-HC       4.615496     2.615506    -2.220218
H-HC       3.589612     3.863751    -1.456225
H-HC       2.493758     1.574123    -2.417805
H-HC       1.935733     2.242267     -.852355
H-H1       3.871833     -.005871    -1.369146
H-H1       2.558961      .090902     -.162264
N-N        2.968237     3.714577     1.298717
C-CT       2.421250     4.566909     2.350334
C-C        2.772803     3.984606     3.726703
O-O        3.480470     4.628595     4.500663
H-H        2.300538     3.210308      .733233
H-H1       2.870194     5.558193     2.262835
C-CT        .900490     4.712058     2.147551
C-CT        .255855     5.625628     3.202567
C-CT      -1.262098     5.696537     3.016378
N-N2      -1.893128     6.400092     4.144823
C-CA      -3.013605     6.026413     4.791813
N-N2      -3.427684     6.737474     5.849461
N-N2      -3.728878     4.957933     4.407332
H-HC        .432711     3.726593     2.192080
H-HC        .711931     5.131489     1.158443
H-HC        .676435     6.629575     3.124906
H-HC        .461427     5.233699     4.198702
H-H1      -1.650387     4.680524     2.946122
H-H1      -1.491779     6.225084     2.090248
H-H       -1.410885     7.222248     4.478814
H-H       -4.263866     6.462612     6.343863
H-H       -2.901862     7.543708     6.155810
H-H       -4.564839     4.698764     4.910897
H-H       -3.431210     4.416130     3.608854
N-N        2.265243     2.777666     4.015153
C-CT       2.405503     2.065500     5.278607
C-C        2.169921      .563277     5.093383
O-O        2.791298     -.235129     5.794468
H-H        1.694545     2.325779     3.315850
H-H1       3.411642     2.219263     5.670588
H-H1       1.683892     2.457431     5.995300

