#p zindo=(window=(22,46),nstates=40) test

Gaussian Test Job 437
Cr(CO)6 ZINDO excitation energies

 0   1
 Cr  0.00  0.00  0.00
 C   1.93  0.00  0.00
 C  -1.93  0.00  0.00
 C   0.00  1.93  0.00
 C   0.00 -1.93  0.00
 C   0.00  0.00  1.93
 C   0.00  0.00 -1.93
 O   3.07  0.00  0.00
 O  -3.07  0.00  0.00
 O   0.00  3.07  0.00
 O   0.00 -3.07  0.00
 O   0.00  0.00  3.07
 O   0.00  0.00 -3.07


