%chk=test0871
#p pm6 test force scf=xqc

Gaussian Test Job 871 (Part 1):
Ac(Ala)9NH forces

1,2
 N,0,8.2101601607,0.2346387338,0.8435825418
 C,0,7.3943662248,1.1935182086,0.0749151693
 C,0,6.0155281627,0.663339277,-0.3731631744
 O,0,5.0084191463,1.3557505337,-0.1999396729
 H,0,8.4618812091,0.5275337855,1.7772142313
 H,0,4.1622992717,-2.6235036043,-2.9691613058
 C,0,8.8624506864,-0.8536665552,0.3422330453
 H,0,7.1456063813,1.9907888569,0.7783656296
 C,0,8.1526347545,1.807245415,-1.1157772254
 H,0,9.0502329673,2.3220684787,-0.7590163594
 H,0,7.5130838528,2.5382448079,-1.6203034998
 H,0,8.4517336481,1.0398567062,-1.8324267446
 N,0,5.9794083239,-0.5460153239,-0.986739176
 C,0,4.778991257,-0.9941315144,-1.6906324864
 C,0,3.566136909,-1.1679194939,-0.7657142907
 O,0,2.4222041394,-1.0746736441,-1.2230009105
 H,0,5.3701388151,-3.0946486053,-1.7542816257
 H,0,2.4932132633,-2.0312469597,3.6047835345
 H,0,6.8791261241,-0.9996849216,-1.1744531375
 H,0,4.4673808326,-0.222162118,-2.4036023213
 C,0,5.0639201193,-2.2998596189,-2.4431030522
 H,0,5.8604449504,-2.1521193024,-3.1794434976
 N,0,3.8138919395,-1.4411655986,0.5345599522
 C,0,2.7380281071,-1.5753987935,1.5115554408
 C,0,1.8453401307,-0.319389913,1.6084224436
 O,0,0.6710137607,-0.4498898444,1.9567146537
 H,0,3.9883434753,-1.148081065,3.247731856
 H,0,1.902676741,4.2413402918,1.3590949032
 H,0,4.778068827,-1.4714224748,0.8394813589
 H,0,2.0633835897,-2.3711531658,1.1822325636
 C,0,3.3107973215,-1.930968306,2.8867797305
 H,0,3.8547027702,-2.8810157952,2.8473772525
 N,0,2.4180466161,0.881653347,1.3516338685
 C,0,1.6165554142,2.1043419898,1.3894736845
 C,0,0.557723915,2.1715002812,0.2671866292
 O,0,-0.5033278699,2.7565727512,0.4569810181
 H,0,3.1495915617,3.3486390499,0.4586051213
 H,0,-0.1630615173,1.0779044229,-4.1182940849
 H,0,3.3558365743,0.9324748312,0.9594166029
 H,0,1.0329204752,2.0978894378,2.3132423472
 C,0,2.5218181913,3.3402318798,1.3555547004
 H,0,3.1736513798,3.3623221129,2.2354179563
 N,0,0.8947185586,1.6049272756,-0.926726963
 C,0,-0.0955152012,1.4851130003,-1.9933905878
 C,0,-1.1781813439,0.4328054349,-1.6747203739
 O,0,-2.3609593388,0.640830572,-1.9454592146
 H,0,1.1745005932,0.2633218608,-3.2784159849
 H,0,-1.7080841616,-3.7710108178,0.0624928468
 H,0,1.7073063182,1.0009024228,-0.9725951648
 H,0,-0.6399230355,2.4297132691,-2.048435752
 C,0,0.5894934691,1.188118821,-3.3319101405
 H,0,1.2592008456,2.0104155119,-3.6048071281
 N,0,-0.7589742576,-0.7214218923,-1.0936522059
 C,0,-1.7145916205,-1.7678977778,-0.7418711783
 C,0,-2.782425926,-1.2798596482,0.2575454631
 O,0,-3.9204196171,-1.7508901702,0.2268153972
 H,0,-0.4352837523,-2.7256449804,0.7308453534
 H,0,-3.2685164771,1.5572946086,3.8198741008
 H,0,0.2296916352,-0.879283578,-0.9296385959
 H,0,-2.2853697067,-2.0496858728,-1.6324529917
 C,0,-0.9818726716,-2.9907246826,-0.1809621151
 H,0,-0.275829137,-3.3906447504,-0.9174951167
 N,0,-2.3939294806,-0.3403598924,1.1519355002
 C,0,-3.3143139396,0.1904362997,2.1511111432
 C,0,-4.5428733644,0.8929983567,1.5398053669
 O,0,-5.5761260002,0.984025998,2.2089498734
 H,0,-2.1274191277,1.977819633,2.5173912401
 H,0,-5.8925726337,3.344110442,-2.0639151732
 H,0,-1.4169937712,-0.070005186,1.1999101415
 H,0,-3.7379870825,-0.6374723821,2.7298889928
 C,0,-2.5686842688,1.1511556772,3.0848742372
 H,0,-1.7665107359,0.6241994667,3.6131725664
 N,0,-4.4149362559,1.4091936842,0.2960810698
 C,0,-5.5315982878,2.0681099018,-0.3728030951
 C,0,-6.6652200726,1.1150462554,-0.8214885605
 O,0,-7.7108885136,1.5982711967,-1.2482720884
 H,0,-4.4761912005,2.2837770659,-2.2662702341
 H,0,-7.7242239885,-3.1180304343,-1.9172693472
 H,0,-3.5680007703,1.242744166,-0.2403105874
 H,0,-6.0147097324,2.7228698846,0.3597417423
 C,0,-5.0321979267,2.9036579501,-1.555011519
 H,0,-4.3709666372,3.7041050249,-1.2067160369
 N,0,-6.4350182252,-0.2180231005,-0.6966577618
 C,0,-7.466941319,-1.2157503035,-0.9308962154
 C,0,-8.0690378617,-1.7935987753,0.3720188554
 O,0,-8.822209312,-2.7624021737,0.3279336209
 H,0,-6.0532895313,-2.8000914587,-1.4013754647
 H,0,9.723054876,-2.5943809844,1.2352026445
 H,0,-5.5311264249,-0.5516570282,-0.3733551124
 H,0,-8.2880084945,-0.689152646,-1.428589881
 C,0,-6.95539718,-2.347412711,-1.8289665996
 H,0,-6.7090186446,-1.9593601625,-2.8226084305
 N,0,-7.7476980143,-1.156251303,1.5257062182
 O,0,8.6586586452,-1.2912956119,-0.7937112085
 C,0,9.8673676576,-1.5116808262,1.269265592
 H,0,9.801313931,-1.1687698697,2.3060389865
 H,0,10.8764031658,-1.3043633311,0.896261677
 H,0,-8.1547854747,-1.516581995,2.3765346658
 H,0,-7.1023299314,-0.3759499909,1.5887768841

--Link1--
%chk=test0871
#p pm6 test force scf=noincore geom=check guess=read

Gaussian Test Job 871 (Part 2):
Ac(Ala)9NH forces, no incore

1,2

--Link1--
%chk=test0871
#p pm6 test stable=nstate=20 geom=check guess=read

Gaussian Test Job 871 (Part 3):
Ac(Ala)9NH stability

1,2

--Link1--
%chk=test0871
#p pm6 test stable=(noincore,nstate=20) scf=noincore geom=check guess=read

Gaussian Test Job 871 (Part 4):
Ac(Ala)9NH stability, no incore

1,2

--Link1--
%chk=test0871
#p pm6 test freq geom=check guess=read

Gaussian Test Job 871 (Part 5):
Ac(Ala)9NH frequencies

1,2

--Link1--
%chk=test0871
%nosave
#p pm6 test freq scf=noincore geom=check guess=read

Gaussian Test Job 871 (Part 6):
Ac(Ala)9NH frequencies, no incore

1,2
