%chk=test0905
#p hf/sto-3g nosymm scf(tight) scrf(smd,solvent=water) test

Gaussian Test Job 905 (Part 1)     
SMD test A in water: DeltaG-S(liq) = -11.106 kcal/mol.

0 1
 C                  0.21333335    0.43999999    0.00000000
 H                 -0.85666665    0.44001318    0.00000000
 C                  0.72667557    1.16595627    1.25740497
 H                  0.37161922    2.17532936    1.25642745
 C                  2.26667296    1.16349991    1.25881364
 C                  3.62187067    1.16133832    1.26005328
 C                  4.97706838    1.15917673    1.26129291
 O                  5.63153388    1.67789188    2.16069078
 C                  0.21103591    0.44162600    2.51480761
 C                 -0.18908706   -0.12043547    3.49051941
 S                  0.80664632   -1.23820730   -0.00000000
 O                 -0.22264704   -2.11100829    0.35684106
 O                  1.54976245   -1.48440190   -1.15574260
 Cl                 2.03024072   -0.94605562    1.55481965
 F                  0.66334114    1.07639023   -1.10227059
 I                  5.88278659    0.20920442   -0.37798349
 P                 -0.81522093   -0.99997937    5.01736547
 H                 -2.20256657   -1.16383946    4.92559437
 C                 -0.40643339    0.01556432    6.53343400
 C                 -1.06101217   -0.20522438    7.69934395
 H                 -1.81528255   -0.96182949    7.75871491
 H                 -0.82274758    0.37906212    8.56348471
 C                  0.67777597    1.10653514    6.45680032
 C                  0.33770005    2.40157824    6.06477587
 C                  1.99971944    0.80003494    6.77940104
 C                  1.31953160    3.38966948    5.99474545
 H                 -0.70444628    2.64270776    5.80976733
 C                  2.98179422    1.78855458    6.71035059
 H                  2.26789522   -0.22056603    7.08856835
 C                  2.64195868    3.08319252    6.31797142
 H                  4.02393269    1.54670187    6.96516210
 H                  3.41591498    3.86244677    6.26273738
 C                  0.94441357    4.81897483    5.56118728
 C                  0.85131759    5.72733089    6.75155381
 H                 -0.03217998    4.77443959    5.02054211
 H                  1.72246796    5.18218718    4.84654711
 H                  0.07321157    5.36374848    7.46600224
 H                  1.82799536    5.77147142    7.29213370
 C                  0.47629578    7.15683869    6.31858027
 O                 -0.33028171    7.39953609    5.40437504
 N                  1.09898539    8.15321495    7.01721321
 H                  0.91923806    9.10365737    6.80806755
 H                  1.73695141    7.94758359    7.74058067

--Link1--
%chk=test0905
#p hf/sto-3g nosymm scf(tight) scrf(check,solvent=fluorobenzene) test
geom(check) guess(check)

Gaussian Test Job 905 (Part 2)
SMD test A in fluorobenzene: DeltaG-S(liq) = -17.796 kcal/mol.

0 1

--Link1--
%chk=test0905
#p hf/sto-3g nosymm scf(tight) scrf(check,solvent=water) test

Gaussian Test Job 905 (Part 3)
SMD test B in water: DeltaG-S(liq) = -31.882 kcal/mol.

0 1
 C                 -5.18708501    2.41272665    0.01912114
 O                 -3.95681601    2.41272665    0.01912114
 O                 -5.81644301    3.61494065    0.01912114
 H                 -5.16963501    4.33937165    0.01908514
 C                 -6.17848561    1.23428495    0.01918815
 C                 -5.94936070    0.34804573   -1.16943790
 H                 -6.08581758    0.91893811   -2.11998465
 H                 -4.91258432   -0.06793412   -1.15803802
 C                 -5.99039899    0.44781578    1.32979476
 N                 -5.84872336   -0.14458956    2.31700493
 N                 -7.54251432    1.78210473    0.00438429
 N                 -8.42858875    0.98638611   -0.31109626
 H                 -9.14780501    0.34051060   -0.56716814
 O                 -6.86966272   -0.74646056   -1.16982301
 O                 -6.56350759   -1.57923114   -2.14714701
 C                 -7.48078978   -2.67626623   -2.14443137
 H                 -7.49224119   -3.12921170   -1.17509692
 C                 -7.04065724   -3.71601039   -3.19172094
 C                 -8.89228280   -2.16604120   -2.48933406
 C                 -9.99324736   -1.76806566   -2.75835817
 C                 -7.81219014   -4.80187143   -3.44113992
 O                 -8.87242052   -4.72726714   -4.39782468
 H                 -8.98220224   -5.58155714   -4.82177817
 N                -11.34058160   -1.28103267   -3.08758347
 H                -11.47564075   -1.31789508   -4.07773507
 C                -12.34311881   -2.12724890   -2.42445661
 H                -12.03407101   -2.85313530   -1.70162994
 O                -13.56356105   -2.00088948   -2.70396440
 N                 -5.77931146   -3.53000990   -3.92337019
 H                 -5.11831777   -4.22026394   -3.62902908
 H                 -5.94605213   -3.62525604   -4.90475988
 C                 -7.54623266   -6.12067397   -2.69172251
 F                 -6.46369930   -5.97682693   -1.89804149
 Cl                -8.94632975   -6.52802117   -1.70612807
 N                 -7.30172348   -7.19593636   -3.66379558
 Si                -8.45722334   -8.62465407   -3.31668493
 O                 -8.20486033  -10.05757488   -4.00693056
 S                -10.15171660   -8.34952748   -1.97303396
 S                -11.16023270  -10.09061290   -1.79438112
 H                -12.04937252   -9.98480448   -0.83817248
 N                 -5.97557571   -7.63113186   -3.55453912
 O                 -5.95697729   -8.95760015   -3.25497951
 H                 -5.09064232   -9.31930616   -3.45555988
 O                 -5.33174092   -7.42376201   -4.73440119
 P                 -3.82820486   -8.33846027   -4.75190503
 O                 -2.78256397   -8.05292583   -3.75892708
 S                 -3.55943718   -9.68069762   -6.04053331

--Link1--
%chk=test0905
#p hf/sto-3g nosymm scf(tight) scrf(check,solvent=fluorobenzene) test
geom(check) guess(check)

Gaussian Test Job 905 (Part 4)
SMD test B in fluorobenzene: DeltaG-S(liq) = -24.237 kcal/mol.

0 1

--Link1--
%chk=test0905
#p hf/sto-3g nosymm scf(tight) scrf(check,solvent=water) test

Gaussian Test Job 905 (Part 5)
SMD test C in water: DeltaG-S(liq) = -79.825 kcal/mol.

1 1
 H             -0.996782    1.138765    0.000000
 C              0.038330    0.800183    0.000000
 O              0.038330   -0.725816    0.000000
 H              0.585508    1.066678    0.901842
 H              0.585508    1.066678   -0.901842
 H             -0.355429   -1.133347   -0.803114
 H             -0.355429   -1.133347    0.803114

--Link1--
%chk=test0905
%nosave
#p hf/sto-3g nosymm scf(tight) scrf(check,solvent=fluorobenzene) test
geom(check) guess(check)

Gaussian Test Job 905 (Part 6)
SMD test C in fluorobenzene: DeltaG-S(liq) = -58.147 kcal/mol.

1 1

