#p ump3/6-31g** maxdisk=12000000 test mdv=2000000 iop(1/2=-1,2/2=-1)

Gaussian Test Job 199 (Part 1):
Propanol cation test of MaxDisk in L804

1,2
C
C,1,cc1
C,2,cc2,1,ccc
H,1,h4,2,h4cc,3,180.0,0
X,1,1.0,2,x5cc,4,180.0,0
H,1,h6,5,h6cx,2,90.0,0
H,1,h6,5,h6cx,2,-90.0,0
X,2,1.0,1,x8cc,3,180.0,0
H,2,h9,8,h9cx,1,90.0,0
H,2,h9,8,h9cx,1,-90.0,0
X,3,1.0,2,x11cc,1,0.0,0
H,3,h12,11,h12cx,2,90.0,0
H,3,h12,11,h12cx,2,-90.0,0
O,3,co,2,occ,11,180.0,0
H,14,oh,3,hoc,2,180.0,0
 
cc1=1.52801
cc2=1.51849
ccc=112.57968
h4=1.08484
h4cc=110.92493
x5cc=128.22278
h6=1.08652
h6cx=53.86668
x8cc=125.46704
h9=1.08579
h9cx=53.37724
x11cc=125.18178
h12=1.08933
h12cx=53.70821
co=1.40413
occ=108.23889
oh=0.94672
hoc=109.67378
 
--Link1--
#p ump3/6-31g** maxdisk=13000000 test iop1=nopacksort mdv=2000000 iop(1/2=-1,2/2=-1)

Gaussian Test Job 199 (Part 2):
Propanol cation test of MaxDisk in L804

1,2
C
C,1,cc1
C,2,cc2,1,ccc
H,1,h4,2,h4cc,3,180.0,0
X,1,1.0,2,x5cc,4,180.0,0
H,1,h6,5,h6cx,2,90.0,0
H,1,h6,5,h6cx,2,-90.0,0
X,2,1.0,1,x8cc,3,180.0,0
H,2,h9,8,h9cx,1,90.0,0
H,2,h9,8,h9cx,1,-90.0,0
X,3,1.0,2,x11cc,1,0.0,0
H,3,h12,11,h12cx,2,90.0,0
H,3,h12,11,h12cx,2,-90.0,0
O,3,co,2,occ,11,180.0,0
H,14,oh,3,hoc,2,180.0,0
 
cc1=1.52801
cc2=1.51849
ccc=112.57968
h4=1.08484
h4cc=110.92493
x5cc=128.22278
h6=1.08652
h6cx=53.86668
x8cc=125.46704
h9=1.08579
h9cx=53.37724
x11cc=125.18178
h12=1.08933
h12cx=53.70821
co=1.40413
occ=108.23889
oh=0.94672
hoc=109.67378
 

