#p b3lyp/6-31G* test nmr=igaim IOp(10/46=6) cphf=(sg1,conver=10,rdfreq)

Gaussian Test Job 761 (Part 1):
S-propylene oxide  b3lyp/6-31G*//pederson_geom  velocity OR (both rxdel and del)

0,1
C   0.152133  -0.035800   0.485797
C  -1.039475   0.615938  -0.061249
C   1.507144   0.097806  -0.148460
O  -0.828215  -0.788248  -0.239431
H   0.153725  -0.249258   1.552136
H  -1.863178   0.881921   0.593333
H  -0.949807   1.214210  -0.962771
H   2.076806  -0.826189  -0.036671
H   2.074465   0.901788   0.325106
H   1.414895   0.315852  -1.212218

0.0 589.3nm 633nm 355nm

--Link1--
#p b3lyp/6-31G* test nmr=igaim IOp(10/46=4) cphf=(sg1,conver=10,rdfreq)

Gaussian Test Job 761 (Part 2):
S-propylene oxide  b3lyp/6-31G*//pederson_geom velocity OR (rxdel only)

0,1
C   0.152133  -0.035800   0.485797
C  -1.039475   0.615938  -0.061249
C   1.507144   0.097806  -0.148460
O  -0.828215  -0.788248  -0.239431
H   0.153725  -0.249258   1.552136
H  -1.863178   0.881921   0.593333
H  -0.949807   1.214210  -0.962771
H   2.076806  -0.826189  -0.036671
H   2.074465   0.901788   0.325106
H   1.414895   0.315852  -1.212218

0.0 589.3nm 633nm 355nm

--Link1--
#p b3lyp/6-31G* test nmr=igaim IOp(10/46=5) cphf=(sg1,conver=10,rdfreq)

Gaussian Test Job 761 (Part 3):
S-propylene oxide  b3lyp/6-31G*//pederson_geom velocity OR (del only)

0,1
C   0.152133  -0.035800   0.485797
C  -1.039475   0.615938  -0.061249
C   1.507144   0.097806  -0.148460
O  -0.828215  -0.788248  -0.239431
H   0.153725  -0.249258   1.552136
H  -1.863178   0.881921   0.593333
H  -0.949807   1.214210  -0.962771
H   2.076806  -0.826189  -0.036671
H   2.074465   0.901788   0.325106
H   1.414895   0.315852  -1.212218

0.0 589.3nm 633nm 355nm

--Link1--
#p b3lyp/6-31G* test nmr=igaim IOp(10/46=3) cphf=(sg1,conver=10,rdfreq)

Gaussian Test Job 761 (Part 4):
S-propylene oxide  b3lyp/6-31G*//pederson_geom velocity OR (via TestUx)

0,1
C   0.152133  -0.035800   0.485797
C  -1.039475   0.615938  -0.061249
C   1.507144   0.097806  -0.148460
O  -0.828215  -0.788248  -0.239431
H   0.153725  -0.249258   1.552136
H  -1.863178   0.881921   0.593333
H  -0.949807   1.214210  -0.962771
H   2.076806  -0.826189  -0.036671
H   2.074465   0.901788   0.325106
H   1.414895   0.315852  -1.212218

0.0 589.3nm 633nm 355nm

