#p rhf/sto-3g test td(full,singlet,sos) nosymm

Gaussian Test Job 757 (Part 1):
S-mo OR via SOS, with DQ terms, nosymm

0,1
 6        0.116652    0.333344    0.368373
 6       -0.002971    0.557661   -1.073614
 6        0.815313   -0.865967    0.942579
 8       -1.121983    0.094304   -0.311228
 1        0.091412    1.211465    1.009399
 1       -0.091931    1.567185   -1.461760
 1        0.420495   -0.169055   -1.760107
 1        0.327837   -1.190697    1.863283
 1        1.854567   -0.627673    1.178528
 1        0.799519   -1.695884    0.236446

0.0 589.3nm

--Link1--
#p rhf/sto-3g test td(full,singlet,sos)

Gaussian Test Job 757 (Part 2):
S-mo OR via SOS, with DQ terms, different input and
standard orientations.

0,1
 6        0.116652    0.333344    0.368373
 6       -0.002971    0.557661   -1.073614
 6        0.815313   -0.865967    0.942579
 8       -1.121983    0.094304   -0.311228
 1        0.091412    1.211465    1.009399
 1       -0.091931    1.567185   -1.461760
 1        0.420495   -0.169055   -1.760107
 1        0.327837   -1.190697    1.863283
 1        1.854567   -0.627673    1.178528
 1        0.799519   -1.695884    0.236446

0.0 589.3nm

--Link1--
#p rhf/sto-3g test td(full,singlet,sos) nosymm

Gaussian Test Job 757 (Part 3):
S-mo OR via SOS, with DQ terms, translated

0,1
   6   30.116652   40.333344   50.368373
   6   29.997029   40.557661   48.926386
   6   30.815313   39.134033   50.942579
   8   28.878017   40.094304   49.688772
   1   30.091412   41.211465   51.009399
   1   29.908069   41.567185   48.538240
   1   30.420495   39.830945   48.239893
   1   30.327837   38.809303   51.863283
   1   31.854567   39.372327   51.178528
   1   30.799519   38.304116   50.236446

0.0 589.3nm

