#p ohse2pbe/6-31g* pop=min scf=tight test

Gaussian Test Job 700:
Polyacetylene hse2pbe/6-31g*

0,1
 C,0,0.,0.,0.
 C,0,1.2339452183,0.6489313089,0.
 H,0,0.00022513,-1.1008924688,0.
 H,0,1.2337259134,1.7498222392,0.
 Tv,0,2.454985259,0.0000001788,0.

1 2 1.4414
1 3 1.0833
2 4 1.0833
2 6 1.3676
1 2 6 123.97
2 6 7 123.97
4 2 6 118.25
2 6 8 118.25


