#P rmp2/6-31g* 5d freq test maxdisk=1gb

Gaussian Test Job 424 (Part 1):
toluene mp2 frequencies
 
0,1
 C,0,-0.0098621906,0.9144853551,0.
 C,0,-0.0067776927,0.1964542844,1.2038350414
 C,0,-0.0067776927,0.1964542844,-1.2038350414
 C,0,-0.0068311535,-1.2004184031,1.2071602371
 C,0,-0.0068311535,-1.2004184031,-1.2071602371
 C,0,-0.0044208576,-1.9039736272,0.
 C,0,0.0293669666,2.4218893954,0.
 H,0,1.0611744997,2.7906460662,0.
 H,0,-0.4679790798,2.8286313885,-0.885431464
 H,0,-0.4679790798,2.8286313885,0.885431464
 H,0,-0.0095654412,-1.7391443234,2.1522310089
 H,0,-0.0095654412,-1.7391443234,-2.1522310089
 H,0,-0.0072166242,-2.9914473628,0.
 H,0,-0.0130330948,0.7374949258,2.1491321995
 H,0,-0.0130330948,0.7374949258,-2.1491321995

--Link1--
#P rmp2/6-31g* 5d freq test maxdisk=1200mb iop1=nopacksort

Gaussian Test Job 424 (Part 2):
toluene mp2 frequencies, full integers in sort
 
0,1
 C,0,-0.0098621906,0.9144853551,0.
 C,0,-0.0067776927,0.1964542844,1.2038350414
 C,0,-0.0067776927,0.1964542844,-1.2038350414
 C,0,-0.0068311535,-1.2004184031,1.2071602371
 C,0,-0.0068311535,-1.2004184031,-1.2071602371
 C,0,-0.0044208576,-1.9039736272,0.
 C,0,0.0293669666,2.4218893954,0.
 H,0,1.0611744997,2.7906460662,0.
 H,0,-0.4679790798,2.8286313885,-0.885431464
 H,0,-0.4679790798,2.8286313885,0.885431464
 H,0,-0.0095654412,-1.7391443234,2.1522310089
 H,0,-0.0095654412,-1.7391443234,-2.1522310089
 H,0,-0.0072166242,-2.9914473628,0.
 H,0,-0.0130330948,0.7374949258,2.1491321995
 H,0,-0.0130330948,0.7374949258,-2.1491321995

