#p rb3lyp/6-31g(df,pd) test force

Gaussian Test Job 340:
(NH3)8, point group O

 0,1
 N
 N,1,R1
 N,1,R1,2,A1
 N,2,R1,1,A1,3,0.
 N,1,R1,2,A1,3,90.
 N,2,R1,1,A1,4,-90.
 N,3,R1,1,A1,4,90.
 N,4,R1,2,A1,3,-90.
 H,1,R2,8,A2,2,D1
 H,1,R2,8,A2,2,D2
 H,1,R2,8,A2,2,D3
 H,2,R2,7,A2,1,D1
 H,2,R2,7,A2,1,D2
 H,2,R2,7,A2,1,D3
 H,3,R2,6,A2,1,D1
 H,3,R2,6,A2,1,D2
 H,3,R2,6,A2,1,D3
 H,4,R2,5,A2,2,D1
 H,4,R2,5,A2,2,D2
 H,4,R2,5,A2,2,D3
 H,5,R2,4,A2,1,D1
 H,5,R2,4,A2,1,D2
 H,5,R2,4,A2,1,D3
 H,6,R2,3,A2,2,D1
 H,6,R2,3,A2,2,D2
 H,6,R2,3,A2,2,D3
 H,7,R2,2,A2,3,D1
 H,7,R2,2,A2,3,D2
 H,7,R2,2,A2,3,D3
 H,8,R2,1,A2,4,D1
 H,8,R2,1,A2,4,D2
 H,8,R2,1,A2,4,D3
      Variables:
 R1=4.0
 A1=90.
 R2=1.0
 A2=60.
 D1=20.
 D2=140.
 D3=-100.

