#p mp2/sto-3g bomd=(nsample=-1,ntraj=1,step=500,readmwvel,update=5,maxpoint=20,rtemp=298,sample=local)
pop=none scf=(qc,maxcycles=1500) nosymm test

Gaussian Test Job 492:
NH4+ trajectory using mixed first and second derivatives

0 2
N   -0.002969005306   -0.021132908478   -0.005538813222
H    0.543962284135    0.679103420972    0.507793842692
H   -0.546019812610   -0.631243390816    0.629431556356
H   -0.519394049170    0.774115371196   -0.568268722836
H    0.562703977117   -0.528347370135   -0.491998465595

0

   -1.140261579987D+12    2.147975136595D+13    7.694683901201D+12
    3.134822208362D+13   -6.736464512013D+13   -2.828047106518D+13
   -9.283190189436D+13   -7.768980184254D+13    5.588674643347D+13
   -3.430021724373D+12    6.827101485144D+13   -7.909228676962D+13
    6.916404094493D+13   -3.282611809027D+12    2.280398018552D+13


