#p ub3lyp/lp-31g 5d 7f nmr=suscep int=ultrafine cphf=ultrafine test
extrabasis

Gaussian Test Job 593:
H2CO triplet susceptability lp-31g(df,pd)

0,3
          6        0.000000    0.000000   -0.542500
          8        0.000000    0.000000    0.677500
          1        0.000000    0.935307   -1.082500
          1        0.000000   -0.935307   -1.082500

C 0
 D     1 1.00       0.000000000000
      0.8000000000D+00  0.1000000000D+01
 F     1 1.00       0.000000000000
      0.8000000000D+00  0.1000000000D+01
 ****
O 0
 D     1 1.00       0.000000000000
      0.8000000000D+00  0.1000000000D+01
 F     1 1.00       0.000000000000
      0.1400000000D+01  0.1000000000D+01
 ****
H 0
 P     1 1.00       0.000000000000
      0.1100000000D+01  0.1000000000D+01
 D     1 1.00       0.000000000000
      0.1000000000D+01  0.1000000000D+01
 ****

