#p rhf/sto-2g test force guess=huckel geom=(nodist,noang)

Gaussian Test Job 93 (Part 1)
H64 4 x 4 x 4 cube

0,1
H     0.780000    0.780000    0.780000
H     0.780000    0.780000    1.560000
H     0.780000    0.780000    2.340000
H     0.780000    0.780000    3.120000
H     0.780000    1.560000    0.780000
H     0.780000    1.560000    1.560000
H     0.780000    1.560000    2.340000
H     0.780000    1.560000    3.120000
H     0.780000    2.340000    0.780000
H     0.780000    2.340000    1.560000
H     0.780000    2.340000    2.340000
H     0.780000    2.340000    3.120000
H     0.780000    3.120000    0.780000
H     0.780000    3.120000    1.560000
H     0.780000    3.120000    2.340000
H     0.780000    3.120000    3.120000
H     1.560000    0.780000    0.780000
H     1.560000    0.780000    1.560000
H     1.560000    0.780000    2.340000
H     1.560000    0.780000    3.120000
H     1.560000    1.560000    0.780000
H     1.560000    1.560000    1.560000
H     1.560000    1.560000    2.340000
H     1.560000    1.560000    3.120000
H     1.560000    2.340000    0.780000
H     1.560000    2.340000    1.560000
H     1.560000    2.340000    2.340000
H     1.560000    2.340000    3.120000
H     1.560000    3.120000    0.780000
H     1.560000    3.120000    1.560000
H     1.560000    3.120000    2.340000
H     1.560000    3.120000    3.120000
H     2.340000    0.780000    0.780000
H     2.340000    0.780000    1.560000
H     2.340000    0.780000    2.340000
H     2.340000    0.780000    3.120000
H     2.340000    1.560000    0.780000
H     2.340000    1.560000    1.560000
H     2.340000    1.560000    2.340000
H     2.340000    1.560000    3.120000
H     2.340000    2.340000    0.780000
H     2.340000    2.340000    1.560000
H     2.340000    2.340000    2.340000
H     2.340000    2.340000    3.120000
H     2.340000    3.120000    0.780000
H     2.340000    3.120000    1.560000
H     2.340000    3.120000    2.340000
H     2.340000    3.120000    3.120000
H     3.120000    0.780000    0.780000
H     3.120000    0.780000    1.560000
H     3.120000    0.780000    2.340000
H     3.120000    0.780000    3.120000
H     3.120000    1.560000    0.780000
H     3.120000    1.560000    1.560000
H     3.120000    1.560000    2.340000
H     3.120000    1.560000    3.120000
H     3.120000    2.340000    0.780000
H     3.120000    2.340000    1.560000
H     3.120000    2.340000    2.340000
H     3.120000    2.340000    3.120000
H     3.120000    3.120000    0.780000
H     3.120000    3.120000    1.560000
H     3.120000    3.120000    2.340000
H     3.120000    3.120000    3.120000

--Link1--
#p rhf/sto-2g test force guess=huckel geom=(nodist,noang)

Gaussian Test Job 93 (Part 2)
H128 Two 4 x 4 x 4 cubes at long distance

0,1
H     0.780000    0.780000    0.780000
H     0.780000    0.780000    1.560000
H     0.780000    0.780000    2.340000
H     0.780000    0.780000    3.120000
H     0.780000    1.560000    0.780000
H     0.780000    1.560000    1.560000
H     0.780000    1.560000    2.340000
H     0.780000    1.560000    3.120000
H     0.780000    2.340000    0.780000
H     0.780000    2.340000    1.560000
H     0.780000    2.340000    2.340000
H     0.780000    2.340000    3.120000
H     0.780000    3.120000    0.780000
H     0.780000    3.120000    1.560000
H     0.780000    3.120000    2.340000
H     0.780000    3.120000    3.120000
H     1.560000    0.780000    0.780000
H     1.560000    0.780000    1.560000
H     1.560000    0.780000    2.340000
H     1.560000    0.780000    3.120000
H     1.560000    1.560000    0.780000
H     1.560000    1.560000    1.560000
H     1.560000    1.560000    2.340000
H     1.560000    1.560000    3.120000
H     1.560000    2.340000    0.780000
H     1.560000    2.340000    1.560000
H     1.560000    2.340000    2.340000
H     1.560000    2.340000    3.120000
H     1.560000    3.120000    0.780000
H     1.560000    3.120000    1.560000
H     1.560000    3.120000    2.340000
H     1.560000    3.120000    3.120000
H     2.340000    0.780000    0.780000
H     2.340000    0.780000    1.560000
H     2.340000    0.780000    2.340000
H     2.340000    0.780000    3.120000
H     2.340000    1.560000    0.780000
H     2.340000    1.560000    1.560000
H     2.340000    1.560000    2.340000
H     2.340000    1.560000    3.120000
H     2.340000    2.340000    0.780000
H     2.340000    2.340000    1.560000
H     2.340000    2.340000    2.340000
H     2.340000    2.340000    3.120000
H     2.340000    3.120000    0.780000
H     2.340000    3.120000    1.560000
H     2.340000    3.120000    2.340000
H     2.340000    3.120000    3.120000
H     3.120000    0.780000    0.780000
H     3.120000    0.780000    1.560000
H     3.120000    0.780000    2.340000
H     3.120000    0.780000    3.120000
H     3.120000    1.560000    0.780000
H     3.120000    1.560000    1.560000
H     3.120000    1.560000    2.340000
H     3.120000    1.560000    3.120000
H     3.120000    2.340000    0.780000
H     3.120000    2.340000    1.560000
H     3.120000    2.340000    2.340000
H     3.120000    2.340000    3.120000
H     3.120000    3.120000    0.780000
H     3.120000    3.120000    1.560000
H     3.120000    3.120000    2.340000
H     3.120000    3.120000    3.120000
H  1000.780000    0.780000    0.780000
H  1000.780000    0.780000    1.560000
H  1000.780000    0.780000    2.340000
H  1000.780000    0.780000    3.120000
H  1000.780000    1.560000    0.780000
H  1000.780000    1.560000    1.560000
H  1000.780000    1.560000    2.340000
H  1000.780000    1.560000    3.120000
H  1000.780000    2.340000    0.780000
H  1000.780000    2.340000    1.560000
H  1000.780000    2.340000    2.340000
H  1000.780000    2.340000    3.120000
H  1000.780000    3.120000    0.780000
H  1000.780000    3.120000    1.560000
H  1000.780000    3.120000    2.340000
H  1000.780000    3.120000    3.120000
H  1001.560000    0.780000    0.780000
H  1001.560000    0.780000    1.560000
H  1001.560000    0.780000    2.340000
H  1001.560000    0.780000    3.120000
H  1001.560000    1.560000    0.780000
H  1001.560000    1.560000    1.560000
H  1001.560000    1.560000    2.340000
H  1001.560000    1.560000    3.120000
H  1001.560000    2.340000    0.780000
H  1001.560000    2.340000    1.560000
H  1001.560000    2.340000    2.340000
H  1001.560000    2.340000    3.120000
H  1001.560000    3.120000    0.780000
H  1001.560000    3.120000    1.560000
H  1001.560000    3.120000    2.340000
H  1001.560000    3.120000    3.120000
H  1002.340000    0.780000    0.780000
H  1002.340000    0.780000    1.560000
H  1002.340000    0.780000    2.340000
H  1002.340000    0.780000    3.120000
H  1002.340000    1.560000    0.780000
H  1002.340000    1.560000    1.560000
H  1002.340000    1.560000    2.340000
H  1002.340000    1.560000    3.120000
H  1002.340000    2.340000    0.780000
H  1002.340000    2.340000    1.560000
H  1002.340000    2.340000    2.340000
H  1002.340000    2.340000    3.120000
H  1002.340000    3.120000    0.780000
H  1002.340000    3.120000    1.560000
H  1002.340000    3.120000    2.340000
H  1002.340000    3.120000    3.120000
H  1003.120000    0.780000    0.780000
H  1003.120000    0.780000    1.560000
H  1003.120000    0.780000    2.340000
H  1003.120000    0.780000    3.120000
H  1003.120000    1.560000    0.780000
H  1003.120000    1.560000    1.560000
H  1003.120000    1.560000    2.340000
H  1003.120000    1.560000    3.120000
H  1003.120000    2.340000    0.780000
H  1003.120000    2.340000    1.560000
H  1003.120000    2.340000    2.340000
H  1003.120000    2.340000    3.120000
H  1003.120000    3.120000    0.780000
H  1003.120000    3.120000    1.560000
H  1003.120000    3.120000    2.340000
H  1003.120000    3.120000    3.120000

