%chk=test0489
#p ubb95/6-31g* int=ultrafine opt freq test 

Gaussian Test Job 489 (Part 1):
methyloxirane BB95

1,2
 O,0,-0.7826612469,-0.6656923398,-0.3544568312
 C,0,-1.1968173954,0.622222178,-0.052812343
 C,0,0.2112872945,-0.0940466445,0.4626773521
 C,0,1.5678630919,0.0250989923,-0.0882073516
 H,0,-1.7727414628,0.8016905152,0.8681043826
 H,0,-1.3431268716,1.270450215,-0.9238794727
 H,0,0.0522782338,-0.1929120564,1.548880566
 H,0,1.5759803187,0.1359704078,-1.180867213
 H,0,2.165421633,-0.8740106858,0.1816122156
 H,0,2.089480178,0.8647031684,0.4118582261

--Link1--
%chk=test0489
%nosave
#p ub1b95/6-31g* int=ultrafine opt=readfc freq test
guess=read geom=check

Gaussian Test Job 489 (Part 2):
methyloxirane B1B95

1,2

