%chk=test0830
#p apfd/3-21g counter=2 test int=ultrafine force
 
Gaussian Test Job 830:
Water APF+D dimer counterpoise
 
0,1
          8        0.000000    3.000000    2.983080 2
          8        0.000000    0.000000    2.983080 1
          1        0.493916    3.756507   -0.288421 2
          8        0.000000    0.000000    0.000000 1
          1        0.493916    0.756507   -0.288421 1
          8        0.000000    3.000000    0.000000 2
          1       -0.912504    0.000000    3.235827 1
          1       -0.912504    3.000000    3.235827 2
          1       -0.008917    3.000000    2.031392 2
          1        0.493916    2.243493   -0.288421 2
          1       -0.008917    0.000000    2.031392 1
          1        0.493916   -0.756507   -0.288421 1

--Link1--
%chk=test0830
%nosave
#p apfd/3-21g counter=2 test int=ultrafine freq geom=allcheck guess=read

