#p uff=softonly opt=tight geom=connect nosym test

Gaussian Test Job 685 (Part 1):
Calculate the hydrogen bond energy between water and
dimethyl disulfide. The energy agrees with the -3.221
kcal/mol value on page 538 of MMFF94 papers, and the 
lowest vibrational frequencies of dimethyl disulfide
agree with the 120, 183, 190, and 292 values on page
574.

0 1
 S-S94--0.23      1.025944   -0.314551   -0.199224
 S-S94--0.23      1.025944    1.739219   -0.125704
 C-C94-0.23      -0.279918   -0.720755    0.984395
 C-C94-0.23      -0.279918    2.145423   -1.309323
 H-H94-0.0       -0.374412   -1.807674    1.054605
 H-H94-0.0       -1.237876   -0.311736    0.653612
 H-H94-0.0       -0.031233   -0.330525    1.974669
 H-H94-0.0       -0.374412    3.232342   -1.379533
 H-H94-0.0       -1.237876    1.736404   -0.978540
 H-H94-0.0       -0.031233    1.755193   -2.299597
 H-HW94-0.43      2.325519    1.287922    1.050533
 O-OW94--0.86     3.014797    1.048560    1.674394
 H-HW94-0.43      3.856131    1.398482    1.372214

1  2  1.0  3  1.0
2  4  1.0
3  5  1.0  6  1.0  7  1.0
4  8  1.0  9  1.0 10  1.0
5
6
7
8
9
10
11 12 1.0
12 13 1.0
13

StrUnit 1
BndUnit 1
SBUnit 1
NonBon  4 3 0 0 0.000 0.000 1.000 0.000 0.000 0.750
Buf94   *     0.025
VDW94   S94   3.00      4.800     3.320     1.345 2.0
VDW94   C94   1.050     2.490     3.890     1.282 0.0
VDW94   H94   0.250     0.800     4.200     1.209 0.0
VDW94   HW94  0.150     0.800     4.200     1.209 1.0
VDW94   OW94  0.87      3.150     3.890     1.282 2.0
QStr1 S94  S94     2.531     2.050 -2.0
QStr1 C94  S94     2.893     1.805 -2.0
QStr1 H94  C94     4.766     1.093 -2.0
QStr1 HW94 OW94    7.880     0.969 -2.0
CubBnd H94  C94  S94  0.576   109.609 -0.007
CubBnd H94  C94  H94  0.516   108.836 -0.007
CubBnd C94  S94  S94  1.377   100.316 -0.007
CubBnd HW94 OW94 HW94 0.658   103.978  -0.007
StrBnd H94  C94  S94  0.018     0.255 1.093 1.805 109.609
StrBnd H94  C94  H94  0.115     0.115 1.093 1.093 108.836
StrBnd C94  S94  S94  0.012     0.238 1.805 2.050 100.316
StrBnd HW94 OW94 HW94 0.210     0.210 0.969 0.969 103.978
AmbTrs  C94  S94  S94  C94  0 180 0 0 -1.663  -8.408   1.433   0.000  2.0
AmbTrs  H94  C94  S94  S94  0 180 0 0  1.555  -0.323   0.456   0.000  2.0




--link1--
#p uff=softonly opt=(calcall,nomicro,tight) geom=connect nosym test

Gaussian Test Job 685 (Part 2):
dimethyl disulfide, freq

0 1
 S-S94--0.23      1.025944   -0.314551   -0.199224
 S-S94--0.23      1.025944    1.739219   -0.125704
 C-C94-0.23      -0.279918   -0.720755    0.984395
 C-C94-0.23      -0.279918    2.145423   -1.309323
 H-H94-0.0       -0.374412   -1.807674    1.054605
 H-H94-0.0       -1.237876   -0.311736    0.653612
 H-H94-0.0       -0.031233   -0.330525    1.974669
 H-H94-0.0       -0.374412    3.232342   -1.379533
 H-H94-0.0       -1.237876    1.736404   -0.978540
 H-H94-0.0       -0.031233    1.755193   -2.299597

1  2  1.0  3  1.0
2  4  1.0
3  5  1.0  6  1.0  7  1.0
4  8  1.0  9  1.0 10  1.0
5
6
7
8
9
10

StrUnit 1
BndUnit 1
SBUnit 1
NonBon  4 3 0 0 0.000 0.000 1.000 0.000 0.000 0.750
Buf94   *     0.025
VDW94   S94   3.00      4.800     3.320     1.345 2.0
VDW94   C94   1.050     2.490     3.890     1.282 0.0
VDW94   H94   0.250     0.800     4.200     1.209 0.0
VDW94   HW94  0.150     0.800     4.200     1.209 1.0
VDW94   OW94  0.87      3.150     3.890     1.282 2.0
QStr1 S94  S94     2.531     2.050 -2.0
QStr1 C94  S94     2.893     1.805 -2.0
QStr1 H94  C94     4.766     1.093 -2.0
QStr1 HW94 OW94    7.880     0.969 -2.0
CubBnd H94  C94  S94  0.576   109.609 -0.007
CubBnd H94  C94  H94  0.516   108.836 -0.007
CubBnd C94  S94  S94  1.377   100.316 -0.007
CubBnd HW94 OW94 HW94 0.658   103.978  -0.007
StrBnd H94  C94  S94  0.018     0.255 1.093 1.805 109.609
StrBnd H94  C94  H94  0.115     0.115 1.093 1.093 108.836
StrBnd C94  S94  S94  0.012     0.238 1.805 2.050 100.316
StrBnd HW94 OW94 HW94 0.210     0.210 0.969 0.969 103.978
AmbTrs  C94  S94  S94  C94  0 180 0 0 -1.663  -8.408   1.433   0.000  2.0
AmbTrs  H94  C94  S94  S94  0 180 0 0  1.555  -0.323   0.456   0.000  2.0



--link1--
#p uff=softonly opt=(nomicro,tight) geom=connect nosym test

Gaussian Test Job 685 (Part 3):
water, some higher order bonded terms

0 1
 H-HW94-0.43      2.325519    1.287922    1.050533
 O-OW94--0.86     3.014797    1.048560    1.674394
 H-HW94-0.43      3.856131    1.398482    1.372214

1 2 1.0
2 3 1.0
3

StrUnit 1
BndUnit 1
SBUnit 1
NonBon  4 3 0 0 0.000 0.000 1.000 0.000 0.000 0.750
Buf94   *     0.025
VDW94   HW94  0.150     0.800     4.200     1.209 1.0
VDW94   OW94  0.87      3.150     3.890     1.282 2.0
QStr1 HW94 OW94    7.880     0.969 -2.0
CubBnd HW94 OW94 HW94 0.658   103.978  -0.007
StrBnd HW94 OW94 HW94 0.210     0.210 0.969 0.969 103.978



