#P RHF/4-31G SCRF=OldPCM scf=tight Test nosymm iop(1/43=100)

Gaussian Test Job 266:
Planar Trans N-MethylFormamide RHF/4-31G Structure, Tomasi Reaction Field

   0   1
 8 0          0.000000    0.000000    0.000000
 6 0          0.000000    0.000000    1.218890
 7 0          1.107174    0.000000    1.978608
 1 0         -0.922452    0.000000    1.783649
 6 0          2.435970    0.000000    1.388965
 1 0          1.016677    0.000000    2.964587
 1 0          3.168019    0.000000    2.181450
 1 0          2.581405    0.875448    0.773390
 1 0          2.581405   -0.875448    0.773390

78.5 200
C 1.6

