#p rmp3/3-21g density=curr test geom=modela iop1=synch 

Gaussian Test Job 263 (Part 1):

1,1
he h

--Link1--
#p ump3/3-21g density=curr test geom=modela iop1=synch 

Gaussian Test Job 263 (Part 2):

1,1
he h

--Link1--
#p ump3/3-21g density=curr test geom=modela iop1=synch 

Gaussian Test Job 263 (Part 3):

1,3
he h

--Link1--
#p ump3/3-21g density=curr test geom=modela iop1=synch 

Gaussian Test Job 263 (Part 4):

-3,3
he h

--Link1--
#p rmp3/3-21g force density=curr test geom=modela iop1=synch 

Gaussian Test Job 263 (Part 5):

1,1
he h

--Link1--
#p ump3/3-21g force density=curr test geom=modela iop1=synch 

Gaussian Test Job 263 (Part 6):

1,1
he h

--Link1--
#p ump3/3-21g force density=curr test geom=modela iop1=synch 

Gaussian Test Job 263 (Part 7):

1,3
he h

--Link1--
#p ump3/3-21g force density=curr test geom=modela iop1=synch 

Gaussian Test Job 263 (Part 8):

-3,3
he h

