#p opt=tight freq amber test

Gaussian Test Job 428:
18C6 + Na+

1,1
O-OS--0.25             0.000000   -2.784618    0.219450
O-OS--0.25             0.000000    2.767380   -0.226829
O-OS--0.25            -2.396622   -1.383690   -0.226829
O-OS--0.25             2.411550    1.392309    0.219450
C-CT-0.167            -1.159048   -3.425486   -0.324145
C-CT-0.167             1.167002    3.431979    0.269086
C-CT-0.167            -2.388680   -2.726643    0.269086
C-CT-0.167             2.387034    2.716507   -0.324145
C-CT-0.167            -3.555682   -0.705336    0.269086
C-CT-0.167             3.546081    0.708978   -0.324145
C-CT-0.167            -3.546081    0.708978   -0.324145
C-CT-0.167             3.555682   -0.705336    0.269086
O-OS--0.25            -2.411550    1.392309    0.219450
O-OS--0.25             2.396622   -1.383690   -0.226829
C-CT-0.167            -2.387034    2.716507   -0.324145
C-CT-0.167             2.388680   -2.726643    0.269086
C-CT-0.167            -1.167002    3.431979    0.269086
C-CT-0.167             1.159048   -3.425486   -0.324145
H-H1-0.01             -1.170461   -3.343661   -1.416698
H-H1-0.01              1.205753    3.394713    1.363104
H-H1-0.01             -1.186540   -4.485898   -0.055046
H-H1-0.01              1.181512    4.479998   -0.045101
H-H1-0.01             -3.289036   -3.263218   -0.045101
H-H1-0.01              3.291632    3.270523   -0.055046
H-H1-0.01             -2.337032   -2.741569    1.363104
H-H1-0.01              2.310465    2.685479   -1.416698
H-H1-0.01             -4.470548   -1.216780   -0.045101
H-H1-0.01              4.478172    1.215375   -0.055046
H-H1-0.01             -3.542785   -0.653144    1.363104
H-H1-0.01              3.480926    0.658182   -1.416698
H-H1-0.01             -4.478172    1.215375   -0.055046
H-H1-0.01              4.470548   -1.216780   -0.045101
H-H1-0.01             -3.480926    0.658182   -1.416698
H-H1-0.01              3.542785   -0.653144    1.363104
H-H1-0.01             -2.310465    2.685479   -1.416698
H-H1-0.01              2.337032   -2.741569    1.363104
H-H1-0.01             -3.291632    3.270523   -0.055046
H-H1-0.01              3.289036   -3.263218   -0.045101
H-H1-0.01             -1.181512    4.479998   -0.045101
H-H1-0.01              1.186540   -4.485898   -0.055046
H-H1-0.01             -1.205753    3.394713    1.363104
H-H1-0.01              1.170461   -3.343661   -1.416698
Na-IP-0.25             0.000000    0.000000    0.235221

