#p opt freq pm3 test

Gaussian Test Job 349:
hexanitroethane S6 symmetry

0,1
C,0.,0.,-0.7712203684
C,0.,0.,0.7712203684
N,1.5233570554,0.0542800221,-1.3865419675
N,-0.7146706497,-1.3464059201,-1.3865419675
N,-0.8086864057,1.292125898,-1.3865419675
N,-1.5233570554,-0.0542800221,1.3865419675
N,0.7146706497,1.3464059201,1.3865419675
N,0.8086864057,-1.292125898,1.3865419675
O,1.6671902022,0.7869120712,-2.3187497503
O,2.3276401972,-0.6560211603,-0.8582637579
O,-0.1521092569,-1.8372851036,-2.3187497503
O,-1.7319510888,-1.6877849615,-0.8582637579
O,-1.5150809453,1.0503730324,-2.3187497503
O,-0.5956891083,2.3438061218,-0.8582637579
O,-1.6671902022,-0.7869120712,2.3187497503
O,-2.3276401972,0.6560211603,0.8582637579
O,0.1521092569,1.8372851036,2.3187497503
O,1.7319510888,1.6877849615,0.8582637579
O,1.5150809453,-1.0503730324,2.3187497503
O,0.5956891083,-2.3438061218,0.8582637579

