#p blyp/6-31G(df)/auto 5d 7f force fmm test geom(modela)

Gaussian Test Job 816 (Part 1):
DFT forces with fitting and pure functions

1 2
c o h h

--Link1--
#p blyp/6-31G(df)/auto 5d 7f freq fmm test geom(modela)

Gaussian Test Job 816 (Part 2):
DFT frequencies with fitting and pure functions

1 2
c o h h

