%mem=100mw
#p lsda/sto-3g/auto admp=maxpoint=3 test 

Gaussian Test Job 676:
ADMP on 24 Waters (8.93185500,8.93185500,8.93185500)

 0  1
O        0.65627954          2.43351047         -0.79147626
H        1.56608290          2.02281575         -0.85143239
H        0.72362698          3.41798218         -0.95360798
O        2.64769128          0.18297793         -1.88623979
H        3.27722862         -0.22626899         -1.22578048
H        2.00545536         -0.51206464         -2.20943587
O       -3.72749913          0.28862605         -0.53553965
H       -3.12514731          0.82426721          0.05629261
H       -3.83590529          0.75705477         -1.41236759
O       -1.36345102          1.67024188         -2.73170477
H       -0.64382428          1.93480272         -2.08971543
H       -1.27196943          0.69942047         -2.95338529
O       -0.36888188          2.90418913          3.69687039
H       -1.17466955          3.38934462          3.35725555
H       -0.53561221          1.91866403          3.66606497
O       -1.55341910         -1.00868089         -3.81197652
H       -1.77186539         -1.82207489         -3.27283292
H       -2.37238562         -0.69928377         -4.29526910
O       -2.42800033          4.11202960          2.40871293
H       -3.34759579          3.77956971          2.19937619
H       -2.20715601          4.88128427          1.80914453
O       -4.45910282         -3.06849405         -3.28379136
H       -4.32156305         -2.20585809         -3.77056599
H       -4.51604176         -2.89137866         -2.30124584
O        2.04773518          2.43478760         -3.65583638
H        1.96894915          1.65030733         -3.04070435
H        2.87934982          2.94610922         -3.43910765
O       -1.58216545          1.48720541          0.53449033
H       -0.67570484          1.62752777          0.13618905
H       -1.53711688          1.62804917          1.52349927
O       -2.47915337         -2.13727370          2.91920556
H       -3.42280615         -1.81508617          2.84357959
H       -2.39525759         -2.73982522          3.71286662
O        0.93754591         -2.59489211          0.03501815
H        1.11568864         -2.49037506         -0.94342376
H        0.00127685         -2.91896685          0.17060255
O        0.89409517         -1.85884820         -2.63154569
H        1.51286010         -1.99624026         -3.40501844
H        0.03091154         -1.47483280         -2.95934572
O        2.06036558          3.89114275          2.78144574
H        1.80042392          4.69442952          2.24556736
H        1.25793258          3.53687666          3.26165582
O        4.28940242          2.93671558         -1.44710435
H        4.03718491          2.48962115         -0.58890751
H        4.74482978          2.27727486         -2.04521195
O       -1.50257118          0.56851705          3.19319187
H       -2.18960583          0.29968189          3.86826017
H       -1.31149451         -0.20317847          2.58657668
O        3.15363565          2.05430050          1.06554498
H        2.66188768          2.52557176          1.79772822
H        3.89122371          1.50546694          1.45892842
O        2.48483255         -1.74829217          4.32627019
H        2.05626861         -2.46107331          4.88150166
H        1.84282007         -1.44221252          3.62331842
O        3.81661889         -1.89725977         -0.19541899
H        2.90138310         -2.29967263         -0.17511280
H        4.44318535         -2.46716806          0.33620498
O       -1.78667265         -3.46708357         -2.86341398
H       -2.76776379         -3.46937257         -3.05695915
H       -1.32883748         -4.13148815         -3.45414092
O       -1.55350121         -3.37154693          0.28453339
H       -1.89363950         -3.30909986          1.22283539
H       -2.20660399         -2.93795480         -0.33632007
O        1.10734684         -0.61456702          1.98257713
H        0.77331686         -1.33944530          1.38009824
H        1.73472105         -0.02296401          1.47620494
O       -4.33758437         -2.43657285         -0.73802031
H       -4.16613986         -1.46005837         -0.60751614
H       -4.86106007         -2.78964256          0.03742797
O        4.12953090         -3.40556804          2.07633225
H        3.84731882         -4.32781749          2.34056509
H        4.32768369         -2.86964534          2.89702044
Tv       8.93185500          0.00000000          0.00000000
Tv       0.00000000          8.93185500          0.00000000
Tv       0.00000000          0.00000000          8.93185500






