#p oniom(ccsd(t)/3-21g:am1) sym=loose test

Gaussian Test Job 606:
ONIOM with CCSD

0 2
6             0        0.000000    0.000000    0.004929 H
6             0       -1.431414   -0.322621    0.003410 L H
6             0       -1.930114   -1.467850   -0.671374 L
6             0       -3.291982   -1.769119   -0.676194 L
6             0       -4.204429   -0.944573   -0.003939 L
6             0       -3.734811    0.189527    0.672406 L
6             0       -2.374676    0.498724    0.675161 L
1             0       -1.237914   -2.104813   -1.210446 L
1             0       -3.644833   -2.644594   -1.212844 L
1             0       -5.263453   -1.181860   -0.006977 L
1             0       -4.430465    0.829811    1.206330 L
1             0       -2.023749    1.369664    1.217264 L
6             0        0.436309    1.400951    0.003410 L H
6             0       -0.306138    2.405453   -0.671374 L
6             0        0.113889    3.735500   -0.676194 L
6             0        1.284190    4.113429   -0.003939 L
6             0        2.031540    3.139677    0.672406 L
6             0        1.619246    1.807168    0.675161 L
1             0       -1.203864    2.124471   -1.210446 L
1             0       -0.467869    4.478815   -1.212844 L
1             0        1.608206    5.149214   -0.006977 L
1             0        2.933870    3.421989    1.206330 L
1             0        2.198038    1.067786    1.217264 L
6             0        0.995105   -1.078331    0.003410 L H
6             0        2.236252   -0.937603   -0.671374 L
6             0        3.178093   -1.966380   -0.676194 L
6             0        2.920239   -3.168856   -0.003939 L
6             0        1.703270   -3.329204    0.672406 L
6             0        0.755431   -2.305892    0.675161 L
1             0        2.441778   -0.019659   -1.210446 L
1             0        4.112702   -1.834221   -1.212844 L
1             0        3.655247   -3.967354   -0.006977 L
1             0        1.496595   -4.251801    1.206330 L
1             0       -0.174289   -2.437450    1.217264 L






