%chk=test0088
#p GVB(2)/6-31g(d) 5d force guess=(cards,lowsym) test pop=full geom=modela
scf=conventional

Gaussian Test Job 88 (Part 1):
CH2 3-B1 GVB(2/4)/3-21G Force

0,3
c h h -o

 1 4 0 2 3 9
(5D15.8)
    1
 0.10189240D+01-0.75852945D-01 0.00000000D+00-0.94195213D-09 0.15313599D+00
-0.64279084D-01 0.00000000D+00-0.38772113D-09 0.71548917D-02-0.11695398D+00
 0.00000000D+00-0.54990129D-11-0.60771070D-04 0.00000000D+00 0.17066733D+00
 0.15541971D-01 0.17066734D-01 0.15541971D-01
    2
-0.44712187D-01 0.15640551D+00 0.00000000D+00 0.30469192D+00-0.25980033D+00
 0.16980626D+00 0.00000000D+00 0.12541561D+00-0.10456954D+00 0.12007397D+00
 0.00000000D+00 0.17788211D-02 0.62392264D-03 0.00000000D+00 0.35520298D+00
 0.20549694D+00-0.55260493D-01-0.39586733D-01
    3
-0.44712194D-01 0.15640553D+00 0.00000000D+00-0.30469192D+00-0.25980031D+00
 0.16980628D+00 0.00000000D+00-0.12541561D+00-0.10456953D+00 0.12007396D+00
 0.00000000D+00-0.17788211D-02 0.62392259D-03 0.00000000D+00-0.55260501D+00
-0.39586739D-01 0.35520297D+00 0.20549694D+00
    4
-0.94393575D-01 0.47141727D+00 0.00000000D+00 0.14817839D-07 0.51010402D+00
 0.45752369D+00 0.00000000D+00 0.60992384D-08 0.17528783D+00-0.17359722D+00
 0.00000000D+00 0.86507753D-10-0.90203762D-03 0.00000000D+00-0.10758575D+00
-0.92294022D-01-0.10758577D+00-0.92294034D-01
    5
 0.00000000D+00 0.00000000D+00 0.80477682D+00 0.00000000D+00 0.00000000D+00
 0.00000000D+00 0.29152795D+00 0.00000000D+00 0.00000000D+00 0.00000000D+00
 0.30717369D-16 0.00000000D+00 0.00000000D+00-0.14142385D-16 0.00000000D+00
 0.00000000D+00 0.00000000D+00 0.00000000D+00
    6
 0.42471273D-01-0.28777777D+00 0.00000000D+00 0.63892336D+00 0.43474377D+00
-0.31424007D+00 0.00000000D+00 0.18478632D+00 0.12959287D+00 0.27733851D+00
 0.00000000D+00-0.36944086D+00 0.24862634D+00 0.00000000D+00 0.52172394D+00
 0.29071279D-01 0.11915935D+01 0.80122605D-01
    7
-0.42471275D-01 0.28777772D+00 0.00000000D+00 0.63892336D+00-0.43474377D+00
 0.31424023D+00 0.00000000D+00 0.18478628D+00-0.12959291D+00-0.27733855D+00
 0.00000000D+00-0.36944086D+00-0.24862634D+00 0.00000000D+00-0.11915935D+00
-0.80122630D-01-0.52171960D-02-0.29071445D-01
    8
-0.23610130D-01 0.83125459D+00 0.00000000D+00 0.57649072D+00 0.42534787D+00
-0.81063088D+00 0.00000000D+00-0.16362068D+01-0.57887069D+00 0.65344561D+00
 0.00000000D+00 0.14749546D+00 0.25871107D-01 0.00000000D+00 0.27751140D+00
 0.72907465D+00-0.17185563D+00-0.81002903D+00
    9
 0.00000000D+00 0.00000000D+00 0.52693522D+00 0.00000000D+00 0.00000000D+00
 0.00000000D+00-0.68207024D+00 0.00000000D+00 0.00000000D+00 0.00000000D+00
-0.63326507D+00 0.00000000D+00 0.00000000D+00 0.51540467D+00 0.00000000D+00
 0.00000000D+00 0.00000000D+00 0.00000000D+00
   10
 0.23610129D-01-0.83125472D+00 0.00000000D+00 0.57649064D+00-0.42534792D+00
 0.81063111D+00 0.00000000D+00-0.16362066D+01 0.57887073D+00-0.65345326D+00
 0.00000000D+00 0.14749545D+00-0.25871195D-01 0.00000000D+00 0.17185563D+00
 0.81002879D+00-0.27751140D+00-0.72907456D+00
   11
-0.22937426D-01-0.13839045D+01 0.00000000D+00 0.19619301D-08 0.62698206D+00
 0.26479660D+01 0.00000000D+00-0.25548354D-07-0.13502464D+01 0.16073892D+00
 0.00000000D+00 0.50874340D-08-0.12819612D+00 0.00000000D+00-0.32754340D+00
-0.78539886D+00-0.32754341D+00-0.78539890D+00
   12
-0.31163656D-01-0.46811517D+00 0.00000000D+00 0.15504804D-01-0.38892411D+00
 0.19797536D+01 0.00000000D+00-0.85915546D+00-0.49892959D+00-0.61725613D+00
 0.00000000D+00 0.27014833D-01-0.53568297D-01 0.00000000D+00-0.85322120D+00
 0.25554382D-01 0.73318997D+00-0.26647231D+01
   13
 0.71676954D-02 0.48570105D-01 0.00000000D+00-0.15840354D+00-0.89072673D+00
-0.51367307D-01 0.00000000D+00 0.10664185D-01 0.60152302D-01 0.23010847D+00
 0.00000000D+00-0.70453320D+00 0.69898537D+00 0.00000000D+00 0.53571957D+00
 0.28222044D-01 0.14857924D+00-0.96438761D-01
   14
 0.15912519D-02 0.36516217D-01 0.00000000D+00 0.36705842D-07 0.79057172D+00
-0.12357002D+00 0.00000000D+00-0.32726096D-07 0.54219591D-01 0.94881989D+00
 0.00000000D+00 0.42914367D-07-0.30799919D+00 0.00000000D+00 0.15128721D+00
 0.51345946D-01 0.15128659D-01 0.51346015D-01
   15
 0.00000000D+00 0.00000000D+00 0.52693518D+00 0.00000000D+00 0.00000000D+00
 0.00000000D+00-0.68207018D+00 0.00000000D+00 0.00000000D+00 0.00000000D+00
 0.76298611D+00 0.00000000D+00 0.00000000D+00 0.29072130D+00 0.00000000D+00
 0.00000000D+00 0.00000000D+00 0.00000000D+00
   16
-0.31163659D-01-0.46811512D+00 0.00000000D+00-0.15504881D-01-0.38892418D+00
 0.19797536D+01 0.00000000D+00 0.85915556D+00-0.49892963D+00-0.61725936D+00
 0.00000000D+00-0.27014775D-01-0.53568247D-01 0.00000000D+00 0.73318997D+00
-0.26647232D+01-0.85322173D-01 0.25554425D-01
   17
 0.71676968D-02 0.48570136D-01 0.00000000D+00 0.15840363D+00-0.89072669D+00
-0.51367424D-01 0.00000000D+00-0.10664466D-01 0.60152326D-01 0.23010841D+00
 0.00000000D+00 0.70453324D+00 0.69898537D+00 0.00000000D+00 0.14857922D+00
-0.96438487D-01 0.53571928D-01 0.28221929D-01
   18
 0.00000000D+00 0.00000000D+00-0.52693518D+00 0.00000000D+00 0.00000000D+00
 0.00000000D+00 0.68207018D+00 0.00000000D+00 0.00000000D+00 0.00000000D+00
 0.12972099D+00 0.00000000D+00 0.00000000D+00 0.80612601D+00 0.00000000D+00
 0.00000000D+00 0.00000000D+00 0.00000000D+00

 2 2

--Link1--
%chk=test0088
#p GVB(2)/6-31g(d) 5d force guess=(lowsym,read) test pop=full
geom=modela int=(berny,dsrys) scf=direct

Gaussian Test Job 88 (Part 2):
CH2 3-B1 GVB(2/4)/3-21G Forces, in-core

0,3
c h h -o

 1 4 0 2 3 9
 2 2

--Link1--
%chk=test0088
%nosave
#p GVB(2)/6-31g(d) 5d force guess=(lowsym,read,cards) test pop=full
geom=modela int=(berny,dsrys) scf=noincore

Gaussian Test Job 88 (Part 3):
CH2 3-B1 GVB(2/4)/3-21G Forces, direct

0,3
c h h -o

 1 4 0 2 3 9
(5D15.8)
    1
 0.10189240D+01-0.75852945D-01 0.00000000D+00-0.94195213D-09 0.15313599D+00
-0.64279084D-01 0.00000000D+00-0.38772113D-09 0.71548917D-02-0.11695398D+00
 0.00000000D+00-0.54990129D-11-0.60771070D-04 0.00000000D+00 0.17066733D+00
 0.15541971D-01 0.17066734D-01 0.15541971D-01
    2
-0.44712187D-01 0.15640551D+00 0.00000000D+00 0.30469192D+00-0.25980033D+00
 0.16980626D+00 0.00000000D+00 0.12541561D+00-0.10456954D+00 0.12007397D+00
 0.00000000D+00 0.17788211D-02 0.62392264D-03 0.00000000D+00 0.35520298D+00
 0.20549694D+00-0.55260493D-01-0.39586733D-01
    3
-0.44712194D-01 0.15640553D+00 0.00000000D+00-0.30469192D+00-0.25980031D+00
 0.16980628D+00 0.00000000D+00-0.12541561D+00-0.10456953D+00 0.12007396D+00
 0.00000000D+00-0.17788211D-02 0.62392259D-03 0.00000000D+00-0.55260501D+00
-0.39586739D-01 0.35520297D+00 0.20549694D+00
    4
-0.94393575D-01 0.47141727D+00 0.00000000D+00 0.14817839D-07 0.51010402D+00
 0.45752369D+00 0.00000000D+00 0.60992384D-08 0.17528783D+00-0.17359722D+00
 0.00000000D+00 0.86507753D-10-0.90203762D-03 0.00000000D+00-0.10758575D+00
-0.92294022D-01-0.10758577D+00-0.92294034D-01
    5
 0.00000000D+00 0.00000000D+00 0.80477682D+00 0.00000000D+00 0.00000000D+00
 0.00000000D+00 0.29152795D+00 0.00000000D+00 0.00000000D+00 0.00000000D+00
 0.30717369D-16 0.00000000D+00 0.00000000D+00-0.14142385D-16 0.00000000D+00
 0.00000000D+00 0.00000000D+00 0.00000000D+00
    6
 0.42471273D-01-0.28777777D+00 0.00000000D+00 0.63892336D+00 0.43474377D+00
-0.31424007D+00 0.00000000D+00 0.18478632D+00 0.12959287D+00 0.27733851D+00
 0.00000000D+00-0.36944086D+00 0.24862634D+00 0.00000000D+00 0.52172394D+00
 0.29071279D-01 0.11915935D+01 0.80122605D-01
    7
-0.42471275D-01 0.28777772D+00 0.00000000D+00 0.63892336D+00-0.43474377D+00
 0.31424023D+00 0.00000000D+00 0.18478628D+00-0.12959291D+00-0.27733855D+00
 0.00000000D+00-0.36944086D+00-0.24862634D+00 0.00000000D+00-0.11915935D+00
-0.80122630D-01-0.52171960D-02-0.29071445D-01
    8
-0.23610130D-01 0.83125459D+00 0.00000000D+00 0.57649072D+00 0.42534787D+00
-0.81063088D+00 0.00000000D+00-0.16362068D+01-0.57887069D+00 0.65344561D+00
 0.00000000D+00 0.14749546D+00 0.25871107D-01 0.00000000D+00 0.27751140D+00
 0.72907465D+00-0.17185563D+00-0.81002903D+00
    9
 0.00000000D+00 0.00000000D+00 0.52693522D+00 0.00000000D+00 0.00000000D+00
 0.00000000D+00-0.68207024D+00 0.00000000D+00 0.00000000D+00 0.00000000D+00
-0.63326507D+00 0.00000000D+00 0.00000000D+00 0.51540467D+00 0.00000000D+00
 0.00000000D+00 0.00000000D+00 0.00000000D+00
   10
 0.23610129D-01-0.83125472D+00 0.00000000D+00 0.57649064D+00-0.42534792D+00
 0.81063111D+00 0.00000000D+00-0.16362066D+01 0.57887073D+00-0.65345326D+00
 0.00000000D+00 0.14749545D+00-0.25871195D-01 0.00000000D+00 0.17185563D+00
 0.81002879D+00-0.27751140D+00-0.72907456D+00
   11
-0.22937426D-01-0.13839045D+01 0.00000000D+00 0.19619301D-08 0.62698206D+00
 0.26479660D+01 0.00000000D+00-0.25548354D-07-0.13502464D+01 0.16073892D+00
 0.00000000D+00 0.50874340D-08-0.12819612D+00 0.00000000D+00-0.32754340D+00
-0.78539886D+00-0.32754341D+00-0.78539890D+00
   12
-0.31163656D-01-0.46811517D+00 0.00000000D+00 0.15504804D-01-0.38892411D+00
 0.19797536D+01 0.00000000D+00-0.85915546D+00-0.49892959D+00-0.61725613D+00
 0.00000000D+00 0.27014833D-01-0.53568297D-01 0.00000000D+00-0.85322120D+00
 0.25554382D-01 0.73318997D+00-0.26647231D+01
   13
 0.71676954D-02 0.48570105D-01 0.00000000D+00-0.15840354D+00-0.89072673D+00
-0.51367307D-01 0.00000000D+00 0.10664185D-01 0.60152302D-01 0.23010847D+00
 0.00000000D+00-0.70453320D+00 0.69898537D+00 0.00000000D+00 0.53571957D+00
 0.28222044D-01 0.14857924D+00-0.96438761D-01
   14
 0.15912519D-02 0.36516217D-01 0.00000000D+00 0.36705842D-07 0.79057172D+00
-0.12357002D+00 0.00000000D+00-0.32726096D-07 0.54219591D-01 0.94881989D+00
 0.00000000D+00 0.42914367D-07-0.30799919D+00 0.00000000D+00 0.15128721D+00
 0.51345946D-01 0.15128659D-01 0.51346015D-01
   15
 0.00000000D+00 0.00000000D+00 0.52693518D+00 0.00000000D+00 0.00000000D+00
 0.00000000D+00-0.68207018D+00 0.00000000D+00 0.00000000D+00 0.00000000D+00
 0.76298611D+00 0.00000000D+00 0.00000000D+00 0.29072130D+00 0.00000000D+00
 0.00000000D+00 0.00000000D+00 0.00000000D+00
   16
-0.31163659D-01-0.46811512D+00 0.00000000D+00-0.15504881D-01-0.38892418D+00
 0.19797536D+01 0.00000000D+00 0.85915556D+00-0.49892963D+00-0.61725936D+00
 0.00000000D+00-0.27014775D-01-0.53568247D-01 0.00000000D+00 0.73318997D+00
-0.26647232D+01-0.85322173D-01 0.25554425D-01
   17
 0.71676968D-02 0.48570136D-01 0.00000000D+00 0.15840363D+00-0.89072669D+00
-0.51367424D-01 0.00000000D+00-0.10664466D-01 0.60152326D-01 0.23010841D+00
 0.00000000D+00 0.70453324D+00 0.69898537D+00 0.00000000D+00 0.14857922D+00
-0.96438487D-01 0.53571928D-01 0.28221929D-01
   18
 0.00000000D+00 0.00000000D+00-0.52693518D+00 0.00000000D+00 0.00000000D+00
 0.00000000D+00 0.68207018D+00 0.00000000D+00 0.00000000D+00 0.00000000D+00
 0.12972099D+00 0.00000000D+00 0.00000000D+00 0.80612601D+00 0.00000000D+00
 0.00000000D+00 0.00000000D+00 0.00000000D+00

 2 2
--Link1--
#p GVB(2)/6-31g(d) 5d force guess=(lowsym,cards) test pop=full
geom=modela scf=noincore raff

Gaussian Test Job 88 (Part 4):
CH2 3-B1 GVB(2/4)/3-21G Forces, direct using raff ints

0,3
c h h -o

 1 4 0 2 3 9
(5D15.8)
    1
 0.10189240D+01-0.75852945D-01 0.00000000D+00-0.94195213D-09 0.15313599D+00
-0.64279084D-01 0.00000000D+00-0.38772113D-09 0.71548917D-02-0.11695398D+00
 0.00000000D+00-0.54990129D-11-0.60771070D-04 0.00000000D+00 0.17066733D+00
 0.15541971D-01 0.17066734D-01 0.15541971D-01
    2
-0.44712187D-01 0.15640551D+00 0.00000000D+00 0.30469192D+00-0.25980033D+00
 0.16980626D+00 0.00000000D+00 0.12541561D+00-0.10456954D+00 0.12007397D+00
 0.00000000D+00 0.17788211D-02 0.62392264D-03 0.00000000D+00 0.35520298D+00
 0.20549694D+00-0.55260493D-01-0.39586733D-01
    3
-0.44712194D-01 0.15640553D+00 0.00000000D+00-0.30469192D+00-0.25980031D+00
 0.16980628D+00 0.00000000D+00-0.12541561D+00-0.10456953D+00 0.12007396D+00
 0.00000000D+00-0.17788211D-02 0.62392259D-03 0.00000000D+00-0.55260501D+00
-0.39586739D-01 0.35520297D+00 0.20549694D+00
    4
-0.94393575D-01 0.47141727D+00 0.00000000D+00 0.14817839D-07 0.51010402D+00
 0.45752369D+00 0.00000000D+00 0.60992384D-08 0.17528783D+00-0.17359722D+00
 0.00000000D+00 0.86507753D-10-0.90203762D-03 0.00000000D+00-0.10758575D+00
-0.92294022D-01-0.10758577D+00-0.92294034D-01
    5
 0.00000000D+00 0.00000000D+00 0.80477682D+00 0.00000000D+00 0.00000000D+00
 0.00000000D+00 0.29152795D+00 0.00000000D+00 0.00000000D+00 0.00000000D+00
 0.30717369D-16 0.00000000D+00 0.00000000D+00-0.14142385D-16 0.00000000D+00
 0.00000000D+00 0.00000000D+00 0.00000000D+00
    6
 0.42471273D-01-0.28777777D+00 0.00000000D+00 0.63892336D+00 0.43474377D+00
-0.31424007D+00 0.00000000D+00 0.18478632D+00 0.12959287D+00 0.27733851D+00
 0.00000000D+00-0.36944086D+00 0.24862634D+00 0.00000000D+00 0.52172394D+00
 0.29071279D-01 0.11915935D+01 0.80122605D-01
    7
-0.42471275D-01 0.28777772D+00 0.00000000D+00 0.63892336D+00-0.43474377D+00
 0.31424023D+00 0.00000000D+00 0.18478628D+00-0.12959291D+00-0.27733855D+00
 0.00000000D+00-0.36944086D+00-0.24862634D+00 0.00000000D+00-0.11915935D+00
-0.80122630D-01-0.52171960D-02-0.29071445D-01
    8
-0.23610130D-01 0.83125459D+00 0.00000000D+00 0.57649072D+00 0.42534787D+00
-0.81063088D+00 0.00000000D+00-0.16362068D+01-0.57887069D+00 0.65344561D+00
 0.00000000D+00 0.14749546D+00 0.25871107D-01 0.00000000D+00 0.27751140D+00
 0.72907465D+00-0.17185563D+00-0.81002903D+00
    9
 0.00000000D+00 0.00000000D+00 0.52693522D+00 0.00000000D+00 0.00000000D+00
 0.00000000D+00-0.68207024D+00 0.00000000D+00 0.00000000D+00 0.00000000D+00
-0.63326507D+00 0.00000000D+00 0.00000000D+00 0.51540467D+00 0.00000000D+00
 0.00000000D+00 0.00000000D+00 0.00000000D+00
   10
 0.23610129D-01-0.83125472D+00 0.00000000D+00 0.57649064D+00-0.42534792D+00
 0.81063111D+00 0.00000000D+00-0.16362066D+01 0.57887073D+00-0.65345326D+00
 0.00000000D+00 0.14749545D+00-0.25871195D-01 0.00000000D+00 0.17185563D+00
 0.81002879D+00-0.27751140D+00-0.72907456D+00
   11
-0.22937426D-01-0.13839045D+01 0.00000000D+00 0.19619301D-08 0.62698206D+00
 0.26479660D+01 0.00000000D+00-0.25548354D-07-0.13502464D+01 0.16073892D+00
 0.00000000D+00 0.50874340D-08-0.12819612D+00 0.00000000D+00-0.32754340D+00
-0.78539886D+00-0.32754341D+00-0.78539890D+00
   12
-0.31163656D-01-0.46811517D+00 0.00000000D+00 0.15504804D-01-0.38892411D+00
 0.19797536D+01 0.00000000D+00-0.85915546D+00-0.49892959D+00-0.61725613D+00
 0.00000000D+00 0.27014833D-01-0.53568297D-01 0.00000000D+00-0.85322120D+00
 0.25554382D-01 0.73318997D+00-0.26647231D+01
   13
 0.71676954D-02 0.48570105D-01 0.00000000D+00-0.15840354D+00-0.89072673D+00
-0.51367307D-01 0.00000000D+00 0.10664185D-01 0.60152302D-01 0.23010847D+00
 0.00000000D+00-0.70453320D+00 0.69898537D+00 0.00000000D+00 0.53571957D+00
 0.28222044D-01 0.14857924D+00-0.96438761D-01
   14
 0.15912519D-02 0.36516217D-01 0.00000000D+00 0.36705842D-07 0.79057172D+00
-0.12357002D+00 0.00000000D+00-0.32726096D-07 0.54219591D-01 0.94881989D+00
 0.00000000D+00 0.42914367D-07-0.30799919D+00 0.00000000D+00 0.15128721D+00
 0.51345946D-01 0.15128659D-01 0.51346015D-01
   15
 0.00000000D+00 0.00000000D+00 0.52693518D+00 0.00000000D+00 0.00000000D+00
 0.00000000D+00-0.68207018D+00 0.00000000D+00 0.00000000D+00 0.00000000D+00
 0.76298611D+00 0.00000000D+00 0.00000000D+00 0.29072130D+00 0.00000000D+00
 0.00000000D+00 0.00000000D+00 0.00000000D+00
   16
-0.31163659D-01-0.46811512D+00 0.00000000D+00-0.15504881D-01-0.38892418D+00
 0.19797536D+01 0.00000000D+00 0.85915556D+00-0.49892963D+00-0.61725936D+00
 0.00000000D+00-0.27014775D-01-0.53568247D-01 0.00000000D+00 0.73318997D+00
-0.26647232D+01-0.85322173D-01 0.25554425D-01
   17
 0.71676968D-02 0.48570136D-01 0.00000000D+00 0.15840363D+00-0.89072669D+00
-0.51367424D-01 0.00000000D+00-0.10664466D-01 0.60152326D-01 0.23010841D+00
 0.00000000D+00 0.70453324D+00 0.69898537D+00 0.00000000D+00 0.14857922D+00
-0.96438487D-01 0.53571928D-01 0.28221929D-01
   18
 0.00000000D+00 0.00000000D+00-0.52693518D+00 0.00000000D+00 0.00000000D+00
 0.00000000D+00 0.68207018D+00 0.00000000D+00 0.00000000D+00 0.00000000D+00
 0.12972099D+00 0.00000000D+00 0.00000000D+00 0.80612601D+00 0.00000000D+00
 0.00000000D+00 0.00000000D+00 0.00000000D+00

 2 2
--Link1--
#p GVB(2)/6-31g(d) 5d force guess=(lowsym,cards) test pop=full
geom=modela scf=conventional

Gaussian Test Job 88 (Part 5):
CH2 3-B1 GVB(2/4)/3-21G Forces, conventional

0,3
c h h -o

 1 4 0 2 3 9
(5D15.8)
    1
 0.10189240D+01-0.75852945D-01 0.00000000D+00-0.94195213D-09 0.15313599D+00
-0.64279084D-01 0.00000000D+00-0.38772113D-09 0.71548917D-02-0.11695398D+00
 0.00000000D+00-0.54990129D-11-0.60771070D-04 0.00000000D+00 0.17066733D+00
 0.15541971D-01 0.17066734D-01 0.15541971D-01
    2
-0.44712187D-01 0.15640551D+00 0.00000000D+00 0.30469192D+00-0.25980033D+00
 0.16980626D+00 0.00000000D+00 0.12541561D+00-0.10456954D+00 0.12007397D+00
 0.00000000D+00 0.17788211D-02 0.62392264D-03 0.00000000D+00 0.35520298D+00
 0.20549694D+00-0.55260493D-01-0.39586733D-01
    3
-0.44712194D-01 0.15640553D+00 0.00000000D+00-0.30469192D+00-0.25980031D+00
 0.16980628D+00 0.00000000D+00-0.12541561D+00-0.10456953D+00 0.12007396D+00
 0.00000000D+00-0.17788211D-02 0.62392259D-03 0.00000000D+00-0.55260501D+00
-0.39586739D-01 0.35520297D+00 0.20549694D+00
    4
-0.94393575D-01 0.47141727D+00 0.00000000D+00 0.14817839D-07 0.51010402D+00
 0.45752369D+00 0.00000000D+00 0.60992384D-08 0.17528783D+00-0.17359722D+00
 0.00000000D+00 0.86507753D-10-0.90203762D-03 0.00000000D+00-0.10758575D+00
-0.92294022D-01-0.10758577D+00-0.92294034D-01
    5
 0.00000000D+00 0.00000000D+00 0.80477682D+00 0.00000000D+00 0.00000000D+00
 0.00000000D+00 0.29152795D+00 0.00000000D+00 0.00000000D+00 0.00000000D+00
 0.30717369D-16 0.00000000D+00 0.00000000D+00-0.14142385D-16 0.00000000D+00
 0.00000000D+00 0.00000000D+00 0.00000000D+00
    6
 0.42471273D-01-0.28777777D+00 0.00000000D+00 0.63892336D+00 0.43474377D+00
-0.31424007D+00 0.00000000D+00 0.18478632D+00 0.12959287D+00 0.27733851D+00
 0.00000000D+00-0.36944086D+00 0.24862634D+00 0.00000000D+00 0.52172394D+00
 0.29071279D-01 0.11915935D+01 0.80122605D-01
    7
-0.42471275D-01 0.28777772D+00 0.00000000D+00 0.63892336D+00-0.43474377D+00
 0.31424023D+00 0.00000000D+00 0.18478628D+00-0.12959291D+00-0.27733855D+00
 0.00000000D+00-0.36944086D+00-0.24862634D+00 0.00000000D+00-0.11915935D+00
-0.80122630D-01-0.52171960D-02-0.29071445D-01
    8
-0.23610130D-01 0.83125459D+00 0.00000000D+00 0.57649072D+00 0.42534787D+00
-0.81063088D+00 0.00000000D+00-0.16362068D+01-0.57887069D+00 0.65344561D+00
 0.00000000D+00 0.14749546D+00 0.25871107D-01 0.00000000D+00 0.27751140D+00
 0.72907465D+00-0.17185563D+00-0.81002903D+00
    9
 0.00000000D+00 0.00000000D+00 0.52693522D+00 0.00000000D+00 0.00000000D+00
 0.00000000D+00-0.68207024D+00 0.00000000D+00 0.00000000D+00 0.00000000D+00
-0.63326507D+00 0.00000000D+00 0.00000000D+00 0.51540467D+00 0.00000000D+00
 0.00000000D+00 0.00000000D+00 0.00000000D+00
   10
 0.23610129D-01-0.83125472D+00 0.00000000D+00 0.57649064D+00-0.42534792D+00
 0.81063111D+00 0.00000000D+00-0.16362066D+01 0.57887073D+00-0.65345326D+00
 0.00000000D+00 0.14749545D+00-0.25871195D-01 0.00000000D+00 0.17185563D+00
 0.81002879D+00-0.27751140D+00-0.72907456D+00
   11
-0.22937426D-01-0.13839045D+01 0.00000000D+00 0.19619301D-08 0.62698206D+00
 0.26479660D+01 0.00000000D+00-0.25548354D-07-0.13502464D+01 0.16073892D+00
 0.00000000D+00 0.50874340D-08-0.12819612D+00 0.00000000D+00-0.32754340D+00
-0.78539886D+00-0.32754341D+00-0.78539890D+00
   12
-0.31163656D-01-0.46811517D+00 0.00000000D+00 0.15504804D-01-0.38892411D+00
 0.19797536D+01 0.00000000D+00-0.85915546D+00-0.49892959D+00-0.61725613D+00
 0.00000000D+00 0.27014833D-01-0.53568297D-01 0.00000000D+00-0.85322120D+00
 0.25554382D-01 0.73318997D+00-0.26647231D+01
   13
 0.71676954D-02 0.48570105D-01 0.00000000D+00-0.15840354D+00-0.89072673D+00
-0.51367307D-01 0.00000000D+00 0.10664185D-01 0.60152302D-01 0.23010847D+00
 0.00000000D+00-0.70453320D+00 0.69898537D+00 0.00000000D+00 0.53571957D+00
 0.28222044D-01 0.14857924D+00-0.96438761D-01
   14
 0.15912519D-02 0.36516217D-01 0.00000000D+00 0.36705842D-07 0.79057172D+00
-0.12357002D+00 0.00000000D+00-0.32726096D-07 0.54219591D-01 0.94881989D+00
 0.00000000D+00 0.42914367D-07-0.30799919D+00 0.00000000D+00 0.15128721D+00
 0.51345946D-01 0.15128659D-01 0.51346015D-01
   15
 0.00000000D+00 0.00000000D+00 0.52693518D+00 0.00000000D+00 0.00000000D+00
 0.00000000D+00-0.68207018D+00 0.00000000D+00 0.00000000D+00 0.00000000D+00
 0.76298611D+00 0.00000000D+00 0.00000000D+00 0.29072130D+00 0.00000000D+00
 0.00000000D+00 0.00000000D+00 0.00000000D+00
   16
-0.31163659D-01-0.46811512D+00 0.00000000D+00-0.15504881D-01-0.38892418D+00
 0.19797536D+01 0.00000000D+00 0.85915556D+00-0.49892963D+00-0.61725936D+00
 0.00000000D+00-0.27014775D-01-0.53568247D-01 0.00000000D+00 0.73318997D+00
-0.26647232D+01-0.85322173D-01 0.25554425D-01
   17
 0.71676968D-02 0.48570136D-01 0.00000000D+00 0.15840363D+00-0.89072669D+00
-0.51367424D-01 0.00000000D+00-0.10664466D-01 0.60152326D-01 0.23010841D+00
 0.00000000D+00 0.70453324D+00 0.69898537D+00 0.00000000D+00 0.14857922D+00
-0.96438487D-01 0.53571928D-01 0.28221929D-01
   18
 0.00000000D+00 0.00000000D+00-0.52693518D+00 0.00000000D+00 0.00000000D+00
 0.00000000D+00 0.68207018D+00 0.00000000D+00 0.00000000D+00 0.00000000D+00
 0.12972099D+00 0.00000000D+00 0.00000000D+00 0.80612601D+00 0.00000000D+00
 0.00000000D+00 0.00000000D+00 0.00000000D+00

 2 2
--Link1--
#p GVB(2)/6-31g(d) 5d force guess=(lowsym,cards) test pop=full
geom=modela scf=conventional noraff

Gaussian Test Job 88 (Part 6):
CH2 3-B1 GVB(2/4)/3-21G Forces, conventional with regular ints

0,3
c h h -o

 1 4 0 2 3 9
(5D15.8)
    1
 0.10189240D+01-0.75852945D-01 0.00000000D+00-0.94195213D-09 0.15313599D+00
-0.64279084D-01 0.00000000D+00-0.38772113D-09 0.71548917D-02-0.11695398D+00
 0.00000000D+00-0.54990129D-11-0.60771070D-04 0.00000000D+00 0.17066733D+00
 0.15541971D-01 0.17066734D-01 0.15541971D-01
    2
-0.44712187D-01 0.15640551D+00 0.00000000D+00 0.30469192D+00-0.25980033D+00
 0.16980626D+00 0.00000000D+00 0.12541561D+00-0.10456954D+00 0.12007397D+00
 0.00000000D+00 0.17788211D-02 0.62392264D-03 0.00000000D+00 0.35520298D+00
 0.20549694D+00-0.55260493D-01-0.39586733D-01
    3
-0.44712194D-01 0.15640553D+00 0.00000000D+00-0.30469192D+00-0.25980031D+00
 0.16980628D+00 0.00000000D+00-0.12541561D+00-0.10456953D+00 0.12007396D+00
 0.00000000D+00-0.17788211D-02 0.62392259D-03 0.00000000D+00-0.55260501D+00
-0.39586739D-01 0.35520297D+00 0.20549694D+00
    4
-0.94393575D-01 0.47141727D+00 0.00000000D+00 0.14817839D-07 0.51010402D+00
 0.45752369D+00 0.00000000D+00 0.60992384D-08 0.17528783D+00-0.17359722D+00
 0.00000000D+00 0.86507753D-10-0.90203762D-03 0.00000000D+00-0.10758575D+00
-0.92294022D-01-0.10758577D+00-0.92294034D-01
    5
 0.00000000D+00 0.00000000D+00 0.80477682D+00 0.00000000D+00 0.00000000D+00
 0.00000000D+00 0.29152795D+00 0.00000000D+00 0.00000000D+00 0.00000000D+00
 0.30717369D-16 0.00000000D+00 0.00000000D+00-0.14142385D-16 0.00000000D+00
 0.00000000D+00 0.00000000D+00 0.00000000D+00
    6
 0.42471273D-01-0.28777777D+00 0.00000000D+00 0.63892336D+00 0.43474377D+00
-0.31424007D+00 0.00000000D+00 0.18478632D+00 0.12959287D+00 0.27733851D+00
 0.00000000D+00-0.36944086D+00 0.24862634D+00 0.00000000D+00 0.52172394D+00
 0.29071279D-01 0.11915935D+01 0.80122605D-01
    7
-0.42471275D-01 0.28777772D+00 0.00000000D+00 0.63892336D+00-0.43474377D+00
 0.31424023D+00 0.00000000D+00 0.18478628D+00-0.12959291D+00-0.27733855D+00
 0.00000000D+00-0.36944086D+00-0.24862634D+00 0.00000000D+00-0.11915935D+00
-0.80122630D-01-0.52171960D-02-0.29071445D-01
    8
-0.23610130D-01 0.83125459D+00 0.00000000D+00 0.57649072D+00 0.42534787D+00
-0.81063088D+00 0.00000000D+00-0.16362068D+01-0.57887069D+00 0.65344561D+00
 0.00000000D+00 0.14749546D+00 0.25871107D-01 0.00000000D+00 0.27751140D+00
 0.72907465D+00-0.17185563D+00-0.81002903D+00
    9
 0.00000000D+00 0.00000000D+00 0.52693522D+00 0.00000000D+00 0.00000000D+00
 0.00000000D+00-0.68207024D+00 0.00000000D+00 0.00000000D+00 0.00000000D+00
-0.63326507D+00 0.00000000D+00 0.00000000D+00 0.51540467D+00 0.00000000D+00
 0.00000000D+00 0.00000000D+00 0.00000000D+00
   10
 0.23610129D-01-0.83125472D+00 0.00000000D+00 0.57649064D+00-0.42534792D+00
 0.81063111D+00 0.00000000D+00-0.16362066D+01 0.57887073D+00-0.65345326D+00
 0.00000000D+00 0.14749545D+00-0.25871195D-01 0.00000000D+00 0.17185563D+00
 0.81002879D+00-0.27751140D+00-0.72907456D+00
   11
-0.22937426D-01-0.13839045D+01 0.00000000D+00 0.19619301D-08 0.62698206D+00
 0.26479660D+01 0.00000000D+00-0.25548354D-07-0.13502464D+01 0.16073892D+00
 0.00000000D+00 0.50874340D-08-0.12819612D+00 0.00000000D+00-0.32754340D+00
-0.78539886D+00-0.32754341D+00-0.78539890D+00
   12
-0.31163656D-01-0.46811517D+00 0.00000000D+00 0.15504804D-01-0.38892411D+00
 0.19797536D+01 0.00000000D+00-0.85915546D+00-0.49892959D+00-0.61725613D+00
 0.00000000D+00 0.27014833D-01-0.53568297D-01 0.00000000D+00-0.85322120D+00
 0.25554382D-01 0.73318997D+00-0.26647231D+01
   13
 0.71676954D-02 0.48570105D-01 0.00000000D+00-0.15840354D+00-0.89072673D+00
-0.51367307D-01 0.00000000D+00 0.10664185D-01 0.60152302D-01 0.23010847D+00
 0.00000000D+00-0.70453320D+00 0.69898537D+00 0.00000000D+00 0.53571957D+00
 0.28222044D-01 0.14857924D+00-0.96438761D-01
   14
 0.15912519D-02 0.36516217D-01 0.00000000D+00 0.36705842D-07 0.79057172D+00
-0.12357002D+00 0.00000000D+00-0.32726096D-07 0.54219591D-01 0.94881989D+00
 0.00000000D+00 0.42914367D-07-0.30799919D+00 0.00000000D+00 0.15128721D+00
 0.51345946D-01 0.15128659D-01 0.51346015D-01
   15
 0.00000000D+00 0.00000000D+00 0.52693518D+00 0.00000000D+00 0.00000000D+00
 0.00000000D+00-0.68207018D+00 0.00000000D+00 0.00000000D+00 0.00000000D+00
 0.76298611D+00 0.00000000D+00 0.00000000D+00 0.29072130D+00 0.00000000D+00
 0.00000000D+00 0.00000000D+00 0.00000000D+00
   16
-0.31163659D-01-0.46811512D+00 0.00000000D+00-0.15504881D-01-0.38892418D+00
 0.19797536D+01 0.00000000D+00 0.85915556D+00-0.49892963D+00-0.61725936D+00
 0.00000000D+00-0.27014775D-01-0.53568247D-01 0.00000000D+00 0.73318997D+00
-0.26647232D+01-0.85322173D-01 0.25554425D-01
   17
 0.71676968D-02 0.48570136D-01 0.00000000D+00 0.15840363D+00-0.89072669D+00
-0.51367424D-01 0.00000000D+00-0.10664466D-01 0.60152326D-01 0.23010841D+00
 0.00000000D+00 0.70453324D+00 0.69898537D+00 0.00000000D+00 0.14857922D+00
-0.96438487D-01 0.53571928D-01 0.28221929D-01
   18
 0.00000000D+00 0.00000000D+00-0.52693518D+00 0.00000000D+00 0.00000000D+00
 0.00000000D+00 0.68207018D+00 0.00000000D+00 0.00000000D+00 0.00000000D+00
 0.12972099D+00 0.00000000D+00 0.00000000D+00 0.80612601D+00 0.00000000D+00
 0.00000000D+00 0.00000000D+00 0.00000000D+00

 2 2
--Link1--
#p GVB(2)/6-31g(d) 5d force guess=(lowsym,cards) test pop=full
geom=modela scf=noincore iop(5/29=3)

Gaussian Test Job 88 (Part 7):
CH2 3-B1 GVB(2/4)/3-21G Forces, mix raff and reg ints

0,3
c h h -o

 1 4 0 2 3 9
(5D15.8)
    1
 0.10189240D+01-0.75852945D-01 0.00000000D+00-0.94195213D-09 0.15313599D+00
-0.64279084D-01 0.00000000D+00-0.38772113D-09 0.71548917D-02-0.11695398D+00
 0.00000000D+00-0.54990129D-11-0.60771070D-04 0.00000000D+00 0.17066733D+00
 0.15541971D-01 0.17066734D-01 0.15541971D-01
    2
-0.44712187D-01 0.15640551D+00 0.00000000D+00 0.30469192D+00-0.25980033D+00
 0.16980626D+00 0.00000000D+00 0.12541561D+00-0.10456954D+00 0.12007397D+00
 0.00000000D+00 0.17788211D-02 0.62392264D-03 0.00000000D+00 0.35520298D+00
 0.20549694D+00-0.55260493D-01-0.39586733D-01
    3
-0.44712194D-01 0.15640553D+00 0.00000000D+00-0.30469192D+00-0.25980031D+00
 0.16980628D+00 0.00000000D+00-0.12541561D+00-0.10456953D+00 0.12007396D+00
 0.00000000D+00-0.17788211D-02 0.62392259D-03 0.00000000D+00-0.55260501D+00
-0.39586739D-01 0.35520297D+00 0.20549694D+00
    4
-0.94393575D-01 0.47141727D+00 0.00000000D+00 0.14817839D-07 0.51010402D+00
 0.45752369D+00 0.00000000D+00 0.60992384D-08 0.17528783D+00-0.17359722D+00
 0.00000000D+00 0.86507753D-10-0.90203762D-03 0.00000000D+00-0.10758575D+00
-0.92294022D-01-0.10758577D+00-0.92294034D-01
    5
 0.00000000D+00 0.00000000D+00 0.80477682D+00 0.00000000D+00 0.00000000D+00
 0.00000000D+00 0.29152795D+00 0.00000000D+00 0.00000000D+00 0.00000000D+00
 0.30717369D-16 0.00000000D+00 0.00000000D+00-0.14142385D-16 0.00000000D+00
 0.00000000D+00 0.00000000D+00 0.00000000D+00
    6
 0.42471273D-01-0.28777777D+00 0.00000000D+00 0.63892336D+00 0.43474377D+00
-0.31424007D+00 0.00000000D+00 0.18478632D+00 0.12959287D+00 0.27733851D+00
 0.00000000D+00-0.36944086D+00 0.24862634D+00 0.00000000D+00 0.52172394D+00
 0.29071279D-01 0.11915935D+01 0.80122605D-01
    7
-0.42471275D-01 0.28777772D+00 0.00000000D+00 0.63892336D+00-0.43474377D+00
 0.31424023D+00 0.00000000D+00 0.18478628D+00-0.12959291D+00-0.27733855D+00
 0.00000000D+00-0.36944086D+00-0.24862634D+00 0.00000000D+00-0.11915935D+00
-0.80122630D-01-0.52171960D-02-0.29071445D-01
    8
-0.23610130D-01 0.83125459D+00 0.00000000D+00 0.57649072D+00 0.42534787D+00
-0.81063088D+00 0.00000000D+00-0.16362068D+01-0.57887069D+00 0.65344561D+00
 0.00000000D+00 0.14749546D+00 0.25871107D-01 0.00000000D+00 0.27751140D+00
 0.72907465D+00-0.17185563D+00-0.81002903D+00
    9
 0.00000000D+00 0.00000000D+00 0.52693522D+00 0.00000000D+00 0.00000000D+00
 0.00000000D+00-0.68207024D+00 0.00000000D+00 0.00000000D+00 0.00000000D+00
-0.63326507D+00 0.00000000D+00 0.00000000D+00 0.51540467D+00 0.00000000D+00
 0.00000000D+00 0.00000000D+00 0.00000000D+00
   10
 0.23610129D-01-0.83125472D+00 0.00000000D+00 0.57649064D+00-0.42534792D+00
 0.81063111D+00 0.00000000D+00-0.16362066D+01 0.57887073D+00-0.65345326D+00
 0.00000000D+00 0.14749545D+00-0.25871195D-01 0.00000000D+00 0.17185563D+00
 0.81002879D+00-0.27751140D+00-0.72907456D+00
   11
-0.22937426D-01-0.13839045D+01 0.00000000D+00 0.19619301D-08 0.62698206D+00
 0.26479660D+01 0.00000000D+00-0.25548354D-07-0.13502464D+01 0.16073892D+00
 0.00000000D+00 0.50874340D-08-0.12819612D+00 0.00000000D+00-0.32754340D+00
-0.78539886D+00-0.32754341D+00-0.78539890D+00
   12
-0.31163656D-01-0.46811517D+00 0.00000000D+00 0.15504804D-01-0.38892411D+00
 0.19797536D+01 0.00000000D+00-0.85915546D+00-0.49892959D+00-0.61725613D+00
 0.00000000D+00 0.27014833D-01-0.53568297D-01 0.00000000D+00-0.85322120D+00
 0.25554382D-01 0.73318997D+00-0.26647231D+01
   13
 0.71676954D-02 0.48570105D-01 0.00000000D+00-0.15840354D+00-0.89072673D+00
-0.51367307D-01 0.00000000D+00 0.10664185D-01 0.60152302D-01 0.23010847D+00
 0.00000000D+00-0.70453320D+00 0.69898537D+00 0.00000000D+00 0.53571957D+00
 0.28222044D-01 0.14857924D+00-0.96438761D-01
   14
 0.15912519D-02 0.36516217D-01 0.00000000D+00 0.36705842D-07 0.79057172D+00
-0.12357002D+00 0.00000000D+00-0.32726096D-07 0.54219591D-01 0.94881989D+00
 0.00000000D+00 0.42914367D-07-0.30799919D+00 0.00000000D+00 0.15128721D+00
 0.51345946D-01 0.15128659D-01 0.51346015D-01
   15
 0.00000000D+00 0.00000000D+00 0.52693518D+00 0.00000000D+00 0.00000000D+00
 0.00000000D+00-0.68207018D+00 0.00000000D+00 0.00000000D+00 0.00000000D+00
 0.76298611D+00 0.00000000D+00 0.00000000D+00 0.29072130D+00 0.00000000D+00
 0.00000000D+00 0.00000000D+00 0.00000000D+00
   16
-0.31163659D-01-0.46811512D+00 0.00000000D+00-0.15504881D-01-0.38892418D+00
 0.19797536D+01 0.00000000D+00 0.85915556D+00-0.49892963D+00-0.61725936D+00
 0.00000000D+00-0.27014775D-01-0.53568247D-01 0.00000000D+00 0.73318997D+00
-0.26647232D+01-0.85322173D-01 0.25554425D-01
   17
 0.71676968D-02 0.48570136D-01 0.00000000D+00 0.15840363D+00-0.89072669D+00
-0.51367424D-01 0.00000000D+00-0.10664466D-01 0.60152326D-01 0.23010841D+00
 0.00000000D+00 0.70453324D+00 0.69898537D+00 0.00000000D+00 0.14857922D+00
-0.96438487D-01 0.53571928D-01 0.28221929D-01
   18
 0.00000000D+00 0.00000000D+00-0.52693518D+00 0.00000000D+00 0.00000000D+00
 0.00000000D+00 0.68207018D+00 0.00000000D+00 0.00000000D+00 0.00000000D+00
 0.12972099D+00 0.00000000D+00 0.00000000D+00 0.80612601D+00 0.00000000D+00
 0.00000000D+00 0.00000000D+00 0.00000000D+00

 2 2
