%mem=180MB
#p Mp2/6-31G(d) NMR test
 
Gaussian Test Job 497:
TMS MP2/6-31G*
 
 0  1
 Si,0,0.,0.,0.
 C,0,1.5415337219,0.,1.0900289481
 C,0,-1.2405305394,1.2586570133,0.6643461652
 C,0,0.4788269154,0.4607004415,-1.767192466
 C,0,-0.7798300979,-1.7193574548,0.0128173526
 H,0,2.282413515,-0.721210105,0.7306116967
 H,0,1.2972221902,-0.2639812199,2.1238826298
 H,0,2.0184322952,0.9851913248,1.103937518
 H,0,-2.1480162403,1.2831977591,0.0527130248
 H,0,-1.5390855472,1.0192165392,1.6899000695
 H,0,-0.8178754422,2.2683890839,0.6699549578
 H,0,-0.3951355034,0.4696829779,-2.4262346866
 H,0,1.1989865145,-0.2515271271,-2.182318575
 H,0,0.9350052947,1.4548743027,-1.8089927536
 H,0,-1.6783332625,-1.7528807369,-0.6115190126
 H,0,-0.0842112446,-2.4740908419,-0.3676029009
 H,0,-1.0694025694,-2.0168619568,1.0256680322

