#p mpw1pw91/6-311+g** opt=tight freq test
 
Gaussian Test Job 446:
1.1.1-propellane
 
0,1
X
C,1,d1
C,1,d1,2,120.
C,1,d1,2,120.,3,180.,0
C,1,d2,2,90.,3,90.,0
C,1,d2,2,90.,3,-90.,0
H,2,d3,1,a1,5,90.,0
H,2,d3,1,a1,5,-90.,0
H,3,d3,1,a1,5,90.,0
H,3,d3,1,a1,5,-90.,0
H,4,d3,1,a1,5,90.,0
H,4,d3,1,a1,5,-90.,0
 
d1=1.2
d2=0.9
d3=1.0
a1=120.0
 
