#p opt freq amber geom=(nodist,noangle,nodihed) test

Gaussian Test Job 432:
Tuftsin (Thr-Lys-Pro-Arg) with QEq charges

0,1
N-N--0.8746    .000000   .000000   .000000
C-CT-0.0055(isotop=13)    .000000   .000000  1.500000
C-C-0.4904    1.412520   .000000  2.033747
O-O--0.4408   1.755425   .688494  2.980739
H-H-0.2030     .436509   .856698  -.340483
H-H-0.2413    -.961269  -.020809  -.340483
H-H-0.2118     .548185  -.789914  -.340483
H-H1-0.1735   -.504720   .916552  1.870526
C-CT-0.0497   -.743787 -1.246644  2.014063
O-OH--0.6872  -.718574 -1.204386  3.423204
C-CT--0.3885   .009636 -2.514260  1.570100
H-H1-0.1619  -1.810481 -1.190119  1.712288
H-HO-0.3631  -1.174232 -1.968104  3.727686
H-HC-0.1268   -.519765 -3.418463  1.936504
H-HC-0.2022   1.040333 -2.507156  1.982062
H-HC-0.1079    .067220 -2.553258   .462281
N-N--0.5384   2.220981  -.827180  1.357163
C-CT-0.0179   3.627787  -.968206  1.721317
C-C-0.5133    4.379670   .329757  1.547930
O-O--0.4633   5.197213   .727439  2.361485
H-H-0.2005    1.823979 -1.355336   .580092
H-H1-0.2053   3.706365 -1.268251  2.787102
C-CT--0.3384  4.290656 -2.021100   .813783
C-CT--0.3319  5.774547 -2.169854  1.197890
C-CT--0.3215  6.437416 -3.222748   .290356
C-CT--0.3076  7.921307 -3.371502   .674463
N-N3--0.8579  8.566959 -4.397048  -.209499
H-HC-0.1467   4.214629 -1.695831  -.244763
H-HC-0.1524   3.776569 -2.996226   .943955
H-HC-0.1838   5.850574 -2.495123  2.256436
H-HC-0.2129   6.288634 -1.194728  1.067718
H-HC-0.1893   6.361389 -2.897479  -.768190
H-HC-0.1906   5.923329 -4.197874   .420528
H-HP-0.2112   7.997087 -3.709550  1.729015
H-HP-0.2120   8.438331 -2.399703   .531657
H-H-0.2584    9.549796 -4.495573   .044910
H-H-0.2630    8.495257 -4.101103 -1.182985
H-H-0.2633    8.093707 -5.293117  -.093340
N-N--0.3466   4.047082   .973427   .420688
C-CT-0.0613   4.665851  2.249223   .072738
C-C-0.4764    4.342595  3.319064  1.088142
O-O--0.4614   5.175780  4.114379  1.490233
H-H1-0.1652   5.769000  2.129909   .042293
C-CT--0.2819  4.107613  2.660183 -1.302428
C-CT--0.3088  3.128512  1.554786 -1.739532
C-CT--0.1819  3.114228   .497453  -.619959
H-HC-0.1347   4.940107  2.725630 -2.033708
H-HC-0.1500   3.559902  3.620806 -1.205906
H-HC-0.1521   3.492184  1.090936 -2.680109
H-HC-0.1397   2.111979  1.986112 -1.852308
H-H1-0.1281   3.475185  -.471599 -1.023379
H-H1-0.1840   2.091856   .425603  -.193704
N-N--0.4836   3.062280  3.287903  1.482379
C-CT-0.0160   2.553594  4.243707  2.461806
C-C-0.6958    3.240813  4.089813  3.797525
O-O2--0.4856  3.558756  5.139901  4.396463
H-H-0.2669    2.453784  2.576345  1.077634
H-H1-0.1721   2.737030  5.277217  2.100824
C-CT--0.3566  1.047302  4.006505  2.677258
C-CT--0.3326   .510743  5.014682  3.710352
C-CT--0.2157  -.995549  4.777480  3.925805
N-N2--0.4670 -1.500751  5.726738  4.898523
C-CA-0.3511  -2.804811  5.706561  5.247124
N-N2--0.6227 -3.275171  6.590352  6.152758
N-N2--0.6151 -3.638509  4.802591  4.690091
H-HC-0.2317    .886503  2.974021  3.051719
H-HC-0.1396    .511101  4.143866  1.715115
H-HC-0.1852    .671542  6.047166  3.335892
H-HC-0.2255   1.046944  4.877321  4.672496
H-H1-0.1985  -1.156348  3.744996  4.300265
H-H1-0.1784  -1.531750  4.914842  2.963661
H-H-0.2739    -.870846  6.409738  5.319392
H-H-0.2542   -4.260460  6.575107  6.416145
H-H-0.2503   -2.645266  7.273352  6.573627
H-H-0.2521   -4.623798  4.787346  4.953478
H-H-0.2386   -3.283126  4.134837  4.005834
O-O2--0.3699  3.439411  2.924052  4.202567

