#P CCSD/Gen Scan Test scf=(nosymm,xqc) geom=nocrowd

Gaussian Test Job 467:
Li2 PES SCAN LOWEST TRIPLE CONFIGURATION

   0   3
Li
Li,1,r1

r1=0.25 S 15 0.5   

 LI  0
 S   5  1.00
      1359.44660000        0.00084400
       204.02647000        0.00648600
        46.54954100        0.03247700
        13.23259400        0.11742000
         4.28614800        0.29458000
 S   2  1.00
         1.49554200        0.44951500
         0.54223800        0.54223800
 S   1  1.00
         0.07396800        1.00000000
 S   1  1.00
         0.02809500        1.00000000
 S   1  1.00
         0.01067100        1.00000000
 P   4  1.00
         4.17000000        0.00511200
         1.17256000        0.02090700
         0.32927000        0.09167200
         0.09271000        0.44926000
 P   1  1.00
         0.02607000        1.00000000
 P   1  1.00
         0.00733100        1.00000000
 D   2  1.00
         0.32927000        0.15975700
         0.09271000        1.47548400
 D   2  1.00
         0.02607000        0.37057800
         0.00733100        0.01784700
 ****

