#p test pm6 irc(calcall,hpc,recorr=never,maxpoints=5,forward)
iop(1/45=1020000,1/131=3200)

Gaussian Test Job 964:
IRC job on HCN --> HNC with URVA input file writing turned on.

0  1
C        0.056507    0.000000    0.177394
N       -0.035425    0.000000    1.375654
H        1.277956    0.000000    0.696952

test0964.txt

