%mem=20mw
#p uhf/6-31g* 5d opt freq scrf=iefpcm test

Gaussian Test Job 465:
Fenchone frequencies with PCM

1,2
 C                    0    -1.25978  -0.19921   0.10167 
 C                    0    -1.36923   1.00776  -0.88759 
 C                    0    -0.24703   1.98268  -0.42563 
 C                    0     0.46551   1.18655   0.68857 
 C                    0     1.21675  -0.04143   0.09177 
 C                    0     0.01778  -0.92298  -0.32653 
 C                    0    -0.75101   0.52251   1.37106 
 O                    0     0.08872  -1.98419  -0.89632 
 H                    0    -2.35779   1.45602  -0.78688 
 H                    0    -1.26269   0.69235  -1.925 
 H                    0     0.4153    2.28304  -1.23332 
 H                    0    -0.67505   2.89424  -0.0093 
 H                    0     1.0967    1.79717   1.33238 
 H                    0    -0.49712  -0.16068   2.17949 
 H                    0    -1.47103   1.24962   1.74787 
 C                    0    -2.48939  -1.07787   0.19057 
 H                    0    -3.36215  -0.49506   0.48833 
 H                    0    -2.34943  -1.87906   0.91656 
 H                    0    -2.70043  -1.54455  -0.7715 
 C                    0     2.13043   0.24038  -1.10798 
 H                    0     1.59433   0.65974  -1.95699 
 H                    0     2.92408   0.93573  -0.8294 
 H                    0     2.5924   -0.68756  -1.44246 
 C                    0     2.04478  -0.77418   1.16598 
 H                    0     1.47441  -0.98709   2.06845 
 H                    0     2.41149  -1.72114   0.77209 
 H                    0     2.90439  -0.16451   1.4488 

