%chk=test0677
#p B3LYP gen freq test

Gaussian Test Job 677 (Part 1):
Coupled Monohydride on the Si9 cluster model of Si(100). 
Dimer fully relaxed (6-31G**); next layer Si relaxed, H constrained(6-31G*);
following layers fully constrained(6-31G). Cs symm. B3-LYP Geom.
Optimized Energy = -2613.844934.

0 1
14            -1        0.000000    0.000000    2.389653
 1            -1        0.000000    1.208415    3.244131
 1            -1        0.000000   -1.208415    3.244131
14            -1       -1.918767    0.000000    1.032880
14            -1        1.918767    0.000000    1.032880
 1            -1       -3.127182    0.000000    1.887358
 1            -1        3.127182    0.000000    1.887358
14             0       -1.916894    1.891011   -0.341612
14             0       -1.916894   -1.891011   -0.341612
14             0        1.916894   -1.891011   -0.341612
14             0        1.916894    1.891011   -0.341612
 1            -1       -1.918767    3.127148    0.530585
 1            -1       -1.918767   -3.127148    0.530585
 1            -1        1.918767   -3.127148    0.530585
 1            -1        1.918767    3.127148    0.530585
 1            -1       -3.142685    1.933548   -1.189482
 1            -1       -3.142685   -1.933548   -1.189482
 1            -1        3.142685   -1.933548   -1.189482
 1            -1        3.142685    1.933548   -1.189482
14             0        0.000000    1.248002   -1.602041
14             0        0.000000   -1.248002   -1.602041
 1             0        0.000000    1.747237   -3.007877
 1             0        0.000000   -1.747237   -3.007877

1 2 3 4 5 6 7 0
6-31G
***** 
8 9 10 11 12 13 14 15 16 17 18 19 0
6-31G*
*****
20 21 22 23 0
6-31G**
*****

--Link1--
#p B3LYP gen freq test int=beckeweight

Gaussian Test Job 677 (Part 2):
Coupled Monohydride on the Si9 cluster model of Si(100). 
Dimer fully relaxed (6-31G**); next layer Si relaxed, H constrained(6-31G*);
following layers fully constrained(6-31G). Cs symm. B3-LYP Geom.
Optimized Energy = -2613.844934.

0 1
14            -1        0.000000    0.000000    2.389653
 1            -1        0.000000    1.208415    3.244131
 1            -1        0.000000   -1.208415    3.244131
14            -1       -1.918767    0.000000    1.032880
14            -1        1.918767    0.000000    1.032880
 1            -1       -3.127182    0.000000    1.887358
 1            -1        3.127182    0.000000    1.887358
14             0       -1.916894    1.891011   -0.341612
14             0       -1.916894   -1.891011   -0.341612
14             0        1.916894   -1.891011   -0.341612
14             0        1.916894    1.891011   -0.341612
 1            -1       -1.918767    3.127148    0.530585
 1            -1       -1.918767   -3.127148    0.530585
 1            -1        1.918767   -3.127148    0.530585
 1            -1        1.918767    3.127148    0.530585
 1            -1       -3.142685    1.933548   -1.189482
 1            -1       -3.142685   -1.933548   -1.189482
 1            -1        3.142685   -1.933548   -1.189482
 1            -1        3.142685    1.933548   -1.189482
14             0        0.000000    1.248002   -1.602041
14             0        0.000000   -1.248002   -1.602041
 1             0        0.000000    1.747237   -3.007877
 1             0        0.000000   -1.747237   -3.007877

1 2 3 4 5 6 7 0
6-31G
***** 
8 9 10 11 12 13 14 15 16 17 18 19 0
6-31G*
*****
20 21 22 23 0
6-31G**
*****

