#p test pbepbe/3-21g opt=(addredundant) pbc=cellrange=80 int=ultrafine

Gaussian Test Job 473:
C2H2N2 chain

0,1
 C,0,0.,0.,0.
 N,0,1.1273991312,0.7510131878,0.
 C,0,2.3238677544,0.0000034745,0.
 N,0,3.4512644681,0.7510217661,0.
 H,0,-0.0101773373,-1.1228641677,0.
 H,0,2.3137092235,-1.1228605301,0.
 Tv,0,4.6477244469,0.,0.

* * * * F




