#p rhf/sto-3g* test scf=(tight,novaracc) units=au force

Gaussian Test Job 490 (Part 1):
(sf6)8 -- easy orientation, full symmetry

0,1
S    -50.000000000000    -50.000000000000    -50.000000000000
F    -50.000000000000    -50.000000000000    -46.855598533750
F    -46.855598533750    -50.000000000000    -50.000000000000
F    -50.000000000000    -46.855598533750    -50.000000000000
F    -53.144401466250    -50.000000000000    -50.000000000000
F    -50.000000000000    -53.144401466250    -50.000000000000
F    -50.000000000000    -50.000000000000    -53.144401466250
S    -50.000000000000    -50.000000000000     50.000000000000
F    -50.000000000000    -50.000000000000     53.144401466250
F    -46.855598533750    -50.000000000000     50.000000000000
F    -50.000000000000    -46.855598533750     50.000000000000
F    -53.144401466250    -50.000000000000     50.000000000000
F    -50.000000000000    -53.144401466250     50.000000000000
F    -50.000000000000    -50.000000000000     46.855598533750
S    -50.000000000000     50.000000000000    -50.000000000000
F    -50.000000000000     50.000000000000    -46.855598533750
F    -46.855598533750     50.000000000000    -50.000000000000
F    -50.000000000000     53.144401466250    -50.000000000000
F    -53.144401466250     50.000000000000    -50.000000000000
F    -50.000000000000     46.855598533750    -50.000000000000
F    -50.000000000000     50.000000000000    -53.144401466250
S    -50.000000000000     50.000000000000     50.000000000000
F    -50.000000000000     50.000000000000     53.144401466250
F    -46.855598533750     50.000000000000     50.000000000000
F    -50.000000000000     53.144401466250     50.000000000000
F    -53.144401466250     50.000000000000     50.000000000000
F    -50.000000000000     46.855598533750     50.000000000000
F    -50.000000000000     50.000000000000     46.855598533750
S     50.000000000000    -50.000000000000    -50.000000000000
F     50.000000000000    -50.000000000000    -46.855598533750
F     53.144401466250    -50.000000000000    -50.000000000000
F     50.000000000000    -46.855598533750    -50.000000000000
F     46.855598533750    -50.000000000000    -50.000000000000
F     50.000000000000    -53.144401466250    -50.000000000000
F     50.000000000000    -50.000000000000    -53.144401466250
S     50.000000000000    -50.000000000000     50.000000000000
F     50.000000000000    -50.000000000000     53.144401466250
F     53.144401466250    -50.000000000000     50.000000000000
F     50.000000000000    -46.855598533750     50.000000000000
F     46.855598533750    -50.000000000000     50.000000000000
F     50.000000000000    -53.144401466250     50.000000000000
F     50.000000000000    -50.000000000000     46.855598533750
S     50.000000000000     50.000000000000    -50.000000000000
F     50.000000000000     50.000000000000    -46.855598533750
F     53.144401466250     50.000000000000    -50.000000000000
F     50.000000000000     53.144401466250    -50.000000000000
F     46.855598533750     50.000000000000    -50.000000000000
F     50.000000000000     46.855598533750    -50.000000000000
F     50.000000000000     50.000000000000    -53.144401466250
S     50.000000000000     50.000000000000     50.000000000000
F     50.000000000000     50.000000000000     53.144401466250
F     53.144401466250     50.000000000000     50.000000000000
F     50.000000000000     53.144401466250     50.000000000000
F     46.855598533750     50.000000000000     50.000000000000
F     50.000000000000     46.855598533750     50.000000000000
F     50.000000000000     50.000000000000     46.855598533750

--Link1--
#p rhf/sto-3g* test scf=(tight,novaracc) units=au force

Gaussian Test Job 490 (Part 2):
(sf6)8 -- atoms off axis, full symmetry

0,1
S    -17.041893506729    -74.366994693604    -40.977115149151
F    -15.841814128579    -74.123726560246    -38.080929609103
F    -15.051945762745    -72.152038835558    -41.987728380844
F    -19.160189530259    -72.148424941905    -40.285717438353
F    -19.031841250714    -76.581950551650    -39.966501917458
F    -14.923597483199    -76.585564445303    -41.668512859949
F    -18.241972884880    -74.610262826962    -43.873300689199
S     21.123696702776    -66.630446547026     51.128984251138
F     22.323776080926    -66.387178413668     54.025169791186
F     23.113644446760    -64.415490688980     50.118371019445
F     19.005400679245    -64.411876795327     51.820381961936
F     19.133748958791    -68.845402405072     52.139597482831
F     23.241992726306    -68.849016298725     50.437586540339
F     19.923617324625    -66.873714680384     48.232798711089
S    -84.409118915658     -3.810808547792    -18.988901550496
F    -83.209039537507     -3.567540414434    -16.092716010447
F    -82.419171171673     -1.595852689745    -19.999514782189
F    -86.527414939188     -1.592238796093    -18.297503839698
F    -86.399066659642     -6.025764405838    -17.978288318803
F    -82.290822892127     -6.029378299491    -19.680299261294
F    -85.609198293808     -4.054076681150    -21.885087090544
S    -46.243528706153      3.925739598787     73.117197849793
F    -45.043449328002      4.169007732145     76.013383389841
F    -44.253580962169      6.140695456833     72.106584618100
F    -48.361824729683      6.144309350486     73.808595560591
F    -48.233476450137      1.710783740740     74.127811081486
F    -44.125232682623      1.707169847088     72.425800138994
F    -47.443608084304      3.682471465428     70.221012309744
S     46.243528706153     -3.925739598787    -73.117197849793
F     47.443608084304     -3.682471465428    -70.221012309744
F     48.233476450137     -1.710783740740    -74.127811081486
F     44.125232682623     -1.707169847088    -72.425800138994
F     44.253580962169     -6.140695456833    -72.106584618100
F     48.361824729683     -6.144309350486    -73.808595560591
F     45.043449328002     -4.169007732145    -76.013383389841
S     84.409118915658      3.810808547792     18.988901550496
F     85.609198293808      4.054076681150     21.885087090544
F     86.399066659642      6.025764405838     17.978288318803
F     82.290822892127      6.029378299491     19.680299261294
F     82.419171171673      1.595852689745     19.999514782189
F     86.527414939188      1.592238796093     18.297503839698
F     83.209039537507      3.567540414434     16.092716010447
S    -21.123696702776     66.630446547026    -51.128984251138
F    -19.923617324625     66.873714680384    -48.232798711089
F    -19.133748958791     68.845402405072    -52.139597482831
F    -23.241992726306     68.849016298725    -50.437586540339
F    -23.113644446760     64.415490688980    -50.118371019445
F    -19.005400679245     64.411876795327    -51.820381961936
F    -22.323776080926     66.387178413668    -54.025169791186
S     17.041893506729     74.366994693604     40.977115149151
F     18.241972884880     74.610262826962     43.873300689199
F     19.031841250714     76.581950551650     39.966501917458
F     14.923597483199     76.585564445303     41.668512859949
F     15.051945762745     72.152038835558     41.987728380844
F     19.160189530259     72.148424941905     40.285717438353
F     15.841814128579     74.123726560246     38.080929609103

--Link1--
#p rhf/sto-3g* test scf=(tight,novaracc) units=au force iop1=abelian

Gaussian Test Job 490 (Part 3):
(sf6)8 -- easy orientation, abelian symmetry

0,1
S    -50.000000000000    -50.000000000000    -50.000000000000
F    -50.000000000000    -50.000000000000    -46.855598533750
F    -46.855598533750    -50.000000000000    -50.000000000000
F    -50.000000000000    -46.855598533750    -50.000000000000
F    -53.144401466250    -50.000000000000    -50.000000000000
F    -50.000000000000    -53.144401466250    -50.000000000000
F    -50.000000000000    -50.000000000000    -53.144401466250
S    -50.000000000000    -50.000000000000     50.000000000000
F    -50.000000000000    -50.000000000000     53.144401466250
F    -46.855598533750    -50.000000000000     50.000000000000
F    -50.000000000000    -46.855598533750     50.000000000000
F    -53.144401466250    -50.000000000000     50.000000000000
F    -50.000000000000    -53.144401466250     50.000000000000
F    -50.000000000000    -50.000000000000     46.855598533750
S    -50.000000000000     50.000000000000    -50.000000000000
F    -50.000000000000     50.000000000000    -46.855598533750
F    -46.855598533750     50.000000000000    -50.000000000000
F    -50.000000000000     53.144401466250    -50.000000000000
F    -53.144401466250     50.000000000000    -50.000000000000
F    -50.000000000000     46.855598533750    -50.000000000000
F    -50.000000000000     50.000000000000    -53.144401466250
S    -50.000000000000     50.000000000000     50.000000000000
F    -50.000000000000     50.000000000000     53.144401466250
F    -46.855598533750     50.000000000000     50.000000000000
F    -50.000000000000     53.144401466250     50.000000000000
F    -53.144401466250     50.000000000000     50.000000000000
F    -50.000000000000     46.855598533750     50.000000000000
F    -50.000000000000     50.000000000000     46.855598533750
S     50.000000000000    -50.000000000000    -50.000000000000
F     50.000000000000    -50.000000000000    -46.855598533750
F     53.144401466250    -50.000000000000    -50.000000000000
F     50.000000000000    -46.855598533750    -50.000000000000
F     46.855598533750    -50.000000000000    -50.000000000000
F     50.000000000000    -53.144401466250    -50.000000000000
F     50.000000000000    -50.000000000000    -53.144401466250
S     50.000000000000    -50.000000000000     50.000000000000
F     50.000000000000    -50.000000000000     53.144401466250
F     53.144401466250    -50.000000000000     50.000000000000
F     50.000000000000    -46.855598533750     50.000000000000
F     46.855598533750    -50.000000000000     50.000000000000
F     50.000000000000    -53.144401466250     50.000000000000
F     50.000000000000    -50.000000000000     46.855598533750
S     50.000000000000     50.000000000000    -50.000000000000
F     50.000000000000     50.000000000000    -46.855598533750
F     53.144401466250     50.000000000000    -50.000000000000
F     50.000000000000     53.144401466250    -50.000000000000
F     46.855598533750     50.000000000000    -50.000000000000
F     50.000000000000     46.855598533750    -50.000000000000
F     50.000000000000     50.000000000000    -53.144401466250
S     50.000000000000     50.000000000000     50.000000000000
F     50.000000000000     50.000000000000     53.144401466250
F     53.144401466250     50.000000000000     50.000000000000
F     50.000000000000     53.144401466250     50.000000000000
F     46.855598533750     50.000000000000     50.000000000000
F     50.000000000000     46.855598533750     50.000000000000
F     50.000000000000     50.000000000000     46.855598533750

--Link1--
#p rhf/sto-3g* test scf=(tight,novaracc) units=au force iop1=abelian

Gaussian Test Job 490 (Part 4):
(sf6)8 -- atoms off axis, abelian

0,1
S    -17.041893506729    -74.366994693604    -40.977115149151
F    -15.841814128579    -74.123726560246    -38.080929609103
F    -15.051945762745    -72.152038835558    -41.987728380844
F    -19.160189530259    -72.148424941905    -40.285717438353
F    -19.031841250714    -76.581950551650    -39.966501917458
F    -14.923597483199    -76.585564445303    -41.668512859949
F    -18.241972884880    -74.610262826962    -43.873300689199
S     21.123696702776    -66.630446547026     51.128984251138
F     22.323776080926    -66.387178413668     54.025169791186
F     23.113644446760    -64.415490688980     50.118371019445
F     19.005400679245    -64.411876795327     51.820381961936
F     19.133748958791    -68.845402405072     52.139597482831
F     23.241992726306    -68.849016298725     50.437586540339
F     19.923617324625    -66.873714680384     48.232798711089
S    -84.409118915658     -3.810808547792    -18.988901550496
F    -83.209039537507     -3.567540414434    -16.092716010447
F    -82.419171171673     -1.595852689745    -19.999514782189
F    -86.527414939188     -1.592238796093    -18.297503839698
F    -86.399066659642     -6.025764405838    -17.978288318803
F    -82.290822892127     -6.029378299491    -19.680299261294
F    -85.609198293808     -4.054076681150    -21.885087090544
S    -46.243528706153      3.925739598787     73.117197849793
F    -45.043449328002      4.169007732145     76.013383389841
F    -44.253580962169      6.140695456833     72.106584618100
F    -48.361824729683      6.144309350486     73.808595560591
F    -48.233476450137      1.710783740740     74.127811081486
F    -44.125232682623      1.707169847088     72.425800138994
F    -47.443608084304      3.682471465428     70.221012309744
S     46.243528706153     -3.925739598787    -73.117197849793
F     47.443608084304     -3.682471465428    -70.221012309744
F     48.233476450137     -1.710783740740    -74.127811081486
F     44.125232682623     -1.707169847088    -72.425800138994
F     44.253580962169     -6.140695456833    -72.106584618100
F     48.361824729683     -6.144309350486    -73.808595560591
F     45.043449328002     -4.169007732145    -76.013383389841
S     84.409118915658      3.810808547792     18.988901550496
F     85.609198293808      4.054076681150     21.885087090544
F     86.399066659642      6.025764405838     17.978288318803
F     82.290822892127      6.029378299491     19.680299261294
F     82.419171171673      1.595852689745     19.999514782189
F     86.527414939188      1.592238796093     18.297503839698
F     83.209039537507      3.567540414434     16.092716010447
S    -21.123696702776     66.630446547026    -51.128984251138
F    -19.923617324625     66.873714680384    -48.232798711089
F    -19.133748958791     68.845402405072    -52.139597482831
F    -23.241992726306     68.849016298725    -50.437586540339
F    -23.113644446760     64.415490688980    -50.118371019445
F    -19.005400679245     64.411876795327    -51.820381961936
F    -22.323776080926     66.387178413668    -54.025169791186
S     17.041893506729     74.366994693604     40.977115149151
F     18.241972884880     74.610262826962     43.873300689199
F     19.031841250714     76.581950551650     39.966501917458
F     14.923597483199     76.585564445303     41.668512859949
F     15.051945762745     72.152038835558     41.987728380844
F     19.160189530259     72.148424941905     40.285717438353
F     15.841814128579     74.123726560246     38.080929609103

--Link1--
#p rhf/sto-3g* test scf=(tight,novaracc) units=au force 
iop(5/17=2000)

Gaussian Test Job 490 (Part 5):
(sf6)8 -- easy orientation, no density symmetrization

0,1
S    -50.000000000000    -50.000000000000    -50.000000000000
F    -50.000000000000    -50.000000000000    -46.855598533750
F    -46.855598533750    -50.000000000000    -50.000000000000
F    -50.000000000000    -46.855598533750    -50.000000000000
F    -53.144401466250    -50.000000000000    -50.000000000000
F    -50.000000000000    -53.144401466250    -50.000000000000
F    -50.000000000000    -50.000000000000    -53.144401466250
S    -50.000000000000    -50.000000000000     50.000000000000
F    -50.000000000000    -50.000000000000     53.144401466250
F    -46.855598533750    -50.000000000000     50.000000000000
F    -50.000000000000    -46.855598533750     50.000000000000
F    -53.144401466250    -50.000000000000     50.000000000000
F    -50.000000000000    -53.144401466250     50.000000000000
F    -50.000000000000    -50.000000000000     46.855598533750
S    -50.000000000000     50.000000000000    -50.000000000000
F    -50.000000000000     50.000000000000    -46.855598533750
F    -46.855598533750     50.000000000000    -50.000000000000
F    -50.000000000000     53.144401466250    -50.000000000000
F    -53.144401466250     50.000000000000    -50.000000000000
F    -50.000000000000     46.855598533750    -50.000000000000
F    -50.000000000000     50.000000000000    -53.144401466250
S    -50.000000000000     50.000000000000     50.000000000000
F    -50.000000000000     50.000000000000     53.144401466250
F    -46.855598533750     50.000000000000     50.000000000000
F    -50.000000000000     53.144401466250     50.000000000000
F    -53.144401466250     50.000000000000     50.000000000000
F    -50.000000000000     46.855598533750     50.000000000000
F    -50.000000000000     50.000000000000     46.855598533750
S     50.000000000000    -50.000000000000    -50.000000000000
F     50.000000000000    -50.000000000000    -46.855598533750
F     53.144401466250    -50.000000000000    -50.000000000000
F     50.000000000000    -46.855598533750    -50.000000000000
F     46.855598533750    -50.000000000000    -50.000000000000
F     50.000000000000    -53.144401466250    -50.000000000000
F     50.000000000000    -50.000000000000    -53.144401466250
S     50.000000000000    -50.000000000000     50.000000000000
F     50.000000000000    -50.000000000000     53.144401466250
F     53.144401466250    -50.000000000000     50.000000000000
F     50.000000000000    -46.855598533750     50.000000000000
F     46.855598533750    -50.000000000000     50.000000000000
F     50.000000000000    -53.144401466250     50.000000000000
F     50.000000000000    -50.000000000000     46.855598533750
S     50.000000000000     50.000000000000    -50.000000000000
F     50.000000000000     50.000000000000    -46.855598533750
F     53.144401466250     50.000000000000    -50.000000000000
F     50.000000000000     53.144401466250    -50.000000000000
F     46.855598533750     50.000000000000    -50.000000000000
F     50.000000000000     46.855598533750    -50.000000000000
F     50.000000000000     50.000000000000    -53.144401466250
S     50.000000000000     50.000000000000     50.000000000000
F     50.000000000000     50.000000000000     53.144401466250
F     53.144401466250     50.000000000000     50.000000000000
F     50.000000000000     53.144401466250     50.000000000000
F     46.855598533750     50.000000000000     50.000000000000
F     50.000000000000     46.855598533750     50.000000000000
F     50.000000000000     50.000000000000     46.855598533750

--Link1--
#p rhf/sto-3g* test scf=(tight,novaracc) units=au force
iop(5/17=2000)

Gaussian Test Job 490 (Part 6):
(sf6)8 -- atoms off axis, no density symm

0,1
S    -17.041893506729    -74.366994693604    -40.977115149151
F    -15.841814128579    -74.123726560246    -38.080929609103
F    -15.051945762745    -72.152038835558    -41.987728380844
F    -19.160189530259    -72.148424941905    -40.285717438353
F    -19.031841250714    -76.581950551650    -39.966501917458
F    -14.923597483199    -76.585564445303    -41.668512859949
F    -18.241972884880    -74.610262826962    -43.873300689199
S     21.123696702776    -66.630446547026     51.128984251138
F     22.323776080926    -66.387178413668     54.025169791186
F     23.113644446760    -64.415490688980     50.118371019445
F     19.005400679245    -64.411876795327     51.820381961936
F     19.133748958791    -68.845402405072     52.139597482831
F     23.241992726306    -68.849016298725     50.437586540339
F     19.923617324625    -66.873714680384     48.232798711089
S    -84.409118915658     -3.810808547792    -18.988901550496
F    -83.209039537507     -3.567540414434    -16.092716010447
F    -82.419171171673     -1.595852689745    -19.999514782189
F    -86.527414939188     -1.592238796093    -18.297503839698
F    -86.399066659642     -6.025764405838    -17.978288318803
F    -82.290822892127     -6.029378299491    -19.680299261294
F    -85.609198293808     -4.054076681150    -21.885087090544
S    -46.243528706153      3.925739598787     73.117197849793
F    -45.043449328002      4.169007732145     76.013383389841
F    -44.253580962169      6.140695456833     72.106584618100
F    -48.361824729683      6.144309350486     73.808595560591
F    -48.233476450137      1.710783740740     74.127811081486
F    -44.125232682623      1.707169847088     72.425800138994
F    -47.443608084304      3.682471465428     70.221012309744
S     46.243528706153     -3.925739598787    -73.117197849793
F     47.443608084304     -3.682471465428    -70.221012309744
F     48.233476450137     -1.710783740740    -74.127811081486
F     44.125232682623     -1.707169847088    -72.425800138994
F     44.253580962169     -6.140695456833    -72.106584618100
F     48.361824729683     -6.144309350486    -73.808595560591
F     45.043449328002     -4.169007732145    -76.013383389841
S     84.409118915658      3.810808547792     18.988901550496
F     85.609198293808      4.054076681150     21.885087090544
F     86.399066659642      6.025764405838     17.978288318803
F     82.290822892127      6.029378299491     19.680299261294
F     82.419171171673      1.595852689745     19.999514782189
F     86.527414939188      1.592238796093     18.297503839698
F     83.209039537507      3.567540414434     16.092716010447
S    -21.123696702776     66.630446547026    -51.128984251138
F    -19.923617324625     66.873714680384    -48.232798711089
F    -19.133748958791     68.845402405072    -52.139597482831
F    -23.241992726306     68.849016298725    -50.437586540339
F    -23.113644446760     64.415490688980    -50.118371019445
F    -19.005400679245     64.411876795327    -51.820381961936
F    -22.323776080926     66.387178413668    -54.025169791186
S     17.041893506729     74.366994693604     40.977115149151
F     18.241972884880     74.610262826962     43.873300689199
F     19.031841250714     76.581950551650     39.966501917458
F     14.923597483199     76.585564445303     41.668512859949
F     15.051945762745     72.152038835558     41.987728380844
F     19.160189530259     72.148424941905     40.285717438353
F     15.841814128579     74.123726560246     38.080929609103

--Link1--
#p rhf/sto-3g* test scf=(tight,novaracc) units=au force scf=(qc,verytightlin)

Gaussian Test Job 490 (Part 7):
(sf6)8 -- easy orientation, qcscf

0,1
S    -50.000000000000    -50.000000000000    -50.000000000000
F    -50.000000000000    -50.000000000000    -46.855598533750
F    -46.855598533750    -50.000000000000    -50.000000000000
F    -50.000000000000    -46.855598533750    -50.000000000000
F    -53.144401466250    -50.000000000000    -50.000000000000
F    -50.000000000000    -53.144401466250    -50.000000000000
F    -50.000000000000    -50.000000000000    -53.144401466250
S    -50.000000000000    -50.000000000000     50.000000000000
F    -50.000000000000    -50.000000000000     53.144401466250
F    -46.855598533750    -50.000000000000     50.000000000000
F    -50.000000000000    -46.855598533750     50.000000000000
F    -53.144401466250    -50.000000000000     50.000000000000
F    -50.000000000000    -53.144401466250     50.000000000000
F    -50.000000000000    -50.000000000000     46.855598533750
S    -50.000000000000     50.000000000000    -50.000000000000
F    -50.000000000000     50.000000000000    -46.855598533750
F    -46.855598533750     50.000000000000    -50.000000000000
F    -50.000000000000     53.144401466250    -50.000000000000
F    -53.144401466250     50.000000000000    -50.000000000000
F    -50.000000000000     46.855598533750    -50.000000000000
F    -50.000000000000     50.000000000000    -53.144401466250
S    -50.000000000000     50.000000000000     50.000000000000
F    -50.000000000000     50.000000000000     53.144401466250
F    -46.855598533750     50.000000000000     50.000000000000
F    -50.000000000000     53.144401466250     50.000000000000
F    -53.144401466250     50.000000000000     50.000000000000
F    -50.000000000000     46.855598533750     50.000000000000
F    -50.000000000000     50.000000000000     46.855598533750
S     50.000000000000    -50.000000000000    -50.000000000000
F     50.000000000000    -50.000000000000    -46.855598533750
F     53.144401466250    -50.000000000000    -50.000000000000
F     50.000000000000    -46.855598533750    -50.000000000000
F     46.855598533750    -50.000000000000    -50.000000000000
F     50.000000000000    -53.144401466250    -50.000000000000
F     50.000000000000    -50.000000000000    -53.144401466250
S     50.000000000000    -50.000000000000     50.000000000000
F     50.000000000000    -50.000000000000     53.144401466250
F     53.144401466250    -50.000000000000     50.000000000000
F     50.000000000000    -46.855598533750     50.000000000000
F     46.855598533750    -50.000000000000     50.000000000000
F     50.000000000000    -53.144401466250     50.000000000000
F     50.000000000000    -50.000000000000     46.855598533750
S     50.000000000000     50.000000000000    -50.000000000000
F     50.000000000000     50.000000000000    -46.855598533750
F     53.144401466250     50.000000000000    -50.000000000000
F     50.000000000000     53.144401466250    -50.000000000000
F     46.855598533750     50.000000000000    -50.000000000000
F     50.000000000000     46.855598533750    -50.000000000000
F     50.000000000000     50.000000000000    -53.144401466250
S     50.000000000000     50.000000000000     50.000000000000
F     50.000000000000     50.000000000000     53.144401466250
F     53.144401466250     50.000000000000     50.000000000000
F     50.000000000000     53.144401466250     50.000000000000
F     46.855598533750     50.000000000000     50.000000000000
F     50.000000000000     46.855598533750     50.000000000000
F     50.000000000000     50.000000000000     46.855598533750

--Link1--
#p rhf/sto-3g* test scf=(tight,novaracc) units=au force scf=(qc,verytightlin)

Gaussian Test Job 490 (Part 8):
(sf6)8 -- atoms off axis, qcscf

0,1
S    -17.041893506729    -74.366994693604    -40.977115149151
F    -15.841814128579    -74.123726560246    -38.080929609103
F    -15.051945762745    -72.152038835558    -41.987728380844
F    -19.160189530259    -72.148424941905    -40.285717438353
F    -19.031841250714    -76.581950551650    -39.966501917458
F    -14.923597483199    -76.585564445303    -41.668512859949
F    -18.241972884880    -74.610262826962    -43.873300689199
S     21.123696702776    -66.630446547026     51.128984251138
F     22.323776080926    -66.387178413668     54.025169791186
F     23.113644446760    -64.415490688980     50.118371019445
F     19.005400679245    -64.411876795327     51.820381961936
F     19.133748958791    -68.845402405072     52.139597482831
F     23.241992726306    -68.849016298725     50.437586540339
F     19.923617324625    -66.873714680384     48.232798711089
S    -84.409118915658     -3.810808547792    -18.988901550496
F    -83.209039537507     -3.567540414434    -16.092716010447
F    -82.419171171673     -1.595852689745    -19.999514782189
F    -86.527414939188     -1.592238796093    -18.297503839698
F    -86.399066659642     -6.025764405838    -17.978288318803
F    -82.290822892127     -6.029378299491    -19.680299261294
F    -85.609198293808     -4.054076681150    -21.885087090544
S    -46.243528706153      3.925739598787     73.117197849793
F    -45.043449328002      4.169007732145     76.013383389841
F    -44.253580962169      6.140695456833     72.106584618100
F    -48.361824729683      6.144309350486     73.808595560591
F    -48.233476450137      1.710783740740     74.127811081486
F    -44.125232682623      1.707169847088     72.425800138994
F    -47.443608084304      3.682471465428     70.221012309744
S     46.243528706153     -3.925739598787    -73.117197849793
F     47.443608084304     -3.682471465428    -70.221012309744
F     48.233476450137     -1.710783740740    -74.127811081486
F     44.125232682623     -1.707169847088    -72.425800138994
F     44.253580962169     -6.140695456833    -72.106584618100
F     48.361824729683     -6.144309350486    -73.808595560591
F     45.043449328002     -4.169007732145    -76.013383389841
S     84.409118915658      3.810808547792     18.988901550496
F     85.609198293808      4.054076681150     21.885087090544
F     86.399066659642      6.025764405838     17.978288318803
F     82.290822892127      6.029378299491     19.680299261294
F     82.419171171673      1.595852689745     19.999514782189
F     86.527414939188      1.592238796093     18.297503839698
F     83.209039537507      3.567540414434     16.092716010447
S    -21.123696702776     66.630446547026    -51.128984251138
F    -19.923617324625     66.873714680384    -48.232798711089
F    -19.133748958791     68.845402405072    -52.139597482831
F    -23.241992726306     68.849016298725    -50.437586540339
F    -23.113644446760     64.415490688980    -50.118371019445
F    -19.005400679245     64.411876795327    -51.820381961936
F    -22.323776080926     66.387178413668    -54.025169791186
S     17.041893506729     74.366994693604     40.977115149151
F     18.241972884880     74.610262826962     43.873300689199
F     19.031841250714     76.581950551650     39.966501917458
F     14.923597483199     76.585564445303     41.668512859949
F     15.051945762745     72.152038835558     41.987728380844
F     19.160189530259     72.148424941905     40.285717438353
F     15.841814128579     74.123726560246     38.080929609103

