#p ram1 opt=(big,rfo) test geom=(nodist,noangle,nodihed) nosymm
 
Gaussian Test Job 385:
TAXOL optimzation, O(N^2) NR optimization algorithm
This job flips standard orientation after step 32 if symmetry
is turned on.
 
0,1
C,-1.3407485989,2.5068981381,-1.0105040242
C,-2.2611573273,1.8856182505,-2.0943265967
C,-1.8356889777,3.5131298321,0.0563232144
C,-0.1079176803,2.0359413718,-0.8783672856
C,-2.2847574574,0.3430739629,-1.7868963199
C,-1.8901668904,2.8152600935,1.476724454
C,0.3301999565,0.7749517277,-1.6479342464
C,0.9548253662,2.5935610997,0.0687699409
C,-3.7151563814,2.425903124,-2.2007546573
O,-3.0975681418,4.162129298,-0.1761246274
C,-1.6807512588,2.1463446839,-3.5201484093
H,-1.0718730445,4.2877718544,0.1702484459
C,-3.051733525,0.0482025193,-0.417340068
C,-2.7862596081,1.5477458779,1.8099573223
O,-3.058568054,-0.2614380959,-2.8376468673
C,-0.836026861,-0.2530191234,-1.8228876816
O,-1.1831011344,3.310762087,2.3385853739
O,1.3932266582,0.1403759251,-0.8955880628
C,-2.9776534997,5.3960548371,-0.8232740609
H,-2.3474121695,1.7172271556,-4.2602624699
H,-0.699124145,1.7267601594,-3.676662847
H,-1.6194833454,3.2159639605,-3.6936757169
H,-4.2647850952,1.7667522231,-2.8641931088
H,-3.7123022743,3.4158978512,-2.6408891662
H,-4.2413056333,2.4797724375,-1.2617901283
H,1.9409160947,2.4685847852,-0.3688095768
H,0.9495851624,2.0789957201,1.0271651459
H,0.8077134718,3.6499699342,0.2596627994
H,0.7379792819,1.0408296705,-2.6271831974
C,-2.2693565569,0.2999731506,0.9425320979
C,-2.6247904202,1.3471556505,3.3813191177
C,-4.2766350528,1.9328691865,1.5893442411
O,-3.4812170163,-1.3322891129,-0.5104977811
H,-3.1035188752,-1.2129551173,-2.5718572472
C,2.3446328724,-0.4945991918,-1.6839401445
H,-0.7116455093,-0.7553109958,-2.7787448022
H,-0.7406813396,-1.0007943947,-1.0412400211
H,-3.9500053696,0.6570696828,-0.423396808
C,-4.3519608772,6.0801392896,-0.9186771534
O,-1.9221543602,5.8345235031,-1.2331597173
C,-2.1285346234,-1.0657861364,1.7125960351
C,-1.4176449633,0.4488378812,3.7360455704
O,-3.8257773053,0.904236812,4.0214734985
H,-1.2407159595,0.5268242944,0.684739452
C,-4.8721933161,-1.4912997822,-0.5646655831
H,-4.5773948591,2.6223614237,2.3707269381
H,-4.9229451036,1.0648756175,1.6475448371
H,-4.4352829034,2.425676475,0.6411416397
H,-2.4200283163,2.3458085174,3.7745335248
C,3.4695306974,-1.0722142365,-0.7629518845
O,2.2911886173,-0.5769338052,-2.894526776
H,-4.251498719,7.0264580805,-1.4399590287
H,-4.743936363,6.2559514541,0.0792654112
H,-5.048189822,5.4418065691,-1.4548971755
C,-1.6493066402,-0.9722643548,3.2006733686
C,-3.4170200417,-1.7152868782,2.3129878619
O,-1.3040101377,-1.8549414845,0.8373812114
H,-3.711930363,-0.0742197288,4.1108014252
H,-0.5036533984,0.8558053825,3.3113248853
H,-1.2991537076,0.4121838773,4.8167280843
O,-5.657435211,-0.5713608891,-0.424085799
C,-5.2695234247,-2.9378380626,-0.8022671062
C,4.8323290028,-1.0976320379,-1.5343493676
O,3.5906834443,-0.3054740104,0.4395168284
H,3.1913425755,-2.1119261194,-0.5353522114
O,-2.9131220082,-1.5393717775,3.6658062516
C,-0.998889237,-3.1624467646,1.2214383225
H,-3.581922225,-2.7632801169,2.0553018292
H,-4.339884392,-1.1541502719,2.1476919208
H,-0.8020909418,-1.6234257659,3.4360510502
C,-6.6242401518,-3.256754541,-0.8194663818
C,-4.3225878337,-3.9360884593,-1.0057083511
C,5.9227521605,-1.9162665132,-0.8181001875
N,5.3018416287,0.2717462347,-1.9282440695
H,4.6278680441,-1.5988842901,-2.483612397
H,2.6736441972,0.030837996,0.595063547
O,-1.3834318619,-3.6918131582,2.2440913905
C,-0.0960454523,-3.8166340375,0.1590444555
C,-7.028679157,-4.5635747741,-1.0359976563
C,-4.728387206,-5.2427525389,-1.2225493803
H,-7.3522905618,-2.4698754609,-0.6616327813
H,-3.2704715406,-3.6841703253,-0.9938750598
C,6.9444346922,-2.4668561399,-1.5899315627
C,5.9247130474,-2.1413183891,0.5530135238
C,5.2714637169,1.3126298768,-0.8919364488
H,4.6599652264,0.5986989396,-2.6683156175
H,0.1007994407,-4.8467372745,0.4374946227
H,0.8438960512,-3.2767089817,0.0919596999
H,-0.580228248,-3.7892751008,-0.8126224479
C,-6.0802040371,-5.5567927604,-1.2372531076
H,-8.0828879817,-4.8092307383,-1.0481651594
H,-3.9903269607,-6.0186904504,-1.38049965
C,7.9461731223,-3.2213029175,-1.0051870354
C,6.9274149063,-2.900224698,1.1399481431
O,4.4427553415,2.2085196225,-0.9510964748
C,6.3844988725,1.2847088776,0.1438633688
H,6.951295378,-2.2996180734,-2.6595934998
H,5.143843362,-1.7141143863,1.1674329628
H,-6.3953663804,-6.5792358365,-1.4065789225
C,7.9390770239,-3.441289747,0.3649985395
C,7.6490238782,0.7993796848,-0.171437117
C,6.1511125694,1.8279494457,1.4040864957
H,8.7326283689,-3.6423155484,-1.6185087492
H,6.916159082,-3.0667033564,2.2096151801
C,8.6649754943,0.8431117565,0.7702911704
C,7.1651254272,1.864206229,2.346769983
H,8.71993669,-4.0336383429,0.8246659068
H,7.832389532,0.3943310976,-1.158242783
H,5.1689768643,2.2197466423,1.6384970287
C,8.4227218553,1.3705412195,2.0300665184
H,9.6485190156,0.4665328932,0.5204413187
H,6.9773372253,2.2809955353,3.3279008721
H,9.2169728137,1.4014733951,2.7655913787
 
