%mem=64mw
#p pm3 opt=calcfc geom=readallgic test

Gaussian Test Job 1137 (Part 1):
H3C-C=C=C=C=C=C-CH3

 0 1
   1         5.028    0.821   -0.615
   1         5.028   -0.942   -0.402
   1         5.028    0.123    1.018
   6         4.638   -0.005    0.002
   6         3.179    0.005   -0.002
   6         1.963   -0.005    0.002
   6         0.610    0.005   -0.002
   6        -0.610   -0.005    0.002
   6        -1.963    0.005   -0.002
   6        -3.179   -0.005    0.002
   6        -4.638    0.005   -0.002
   1        -5.028    0.394   -0.946
   1        -5.028   -1.017    0.131
   1        -5.028    0.622    0.815

R1 =R(1,4)           
R2 =R(2,4)           
R3 =R(3,4)           
R4 =R(4,5)           
R5 =R(5,6)           
R6 =R(6,7)           
R7 =R(7,8)           
R8 =R(8,9)           
R9 =R(9,10)          
R10=R(10,11)         
R11=R(11,12)         
R12=R(11,13)         
R13=R(11,14)         
A1 =A(1,4,2)         
A2 =A(1,4,3)         
A3 =A(1,4,5)         
A4 =A(2,4,3)         
A5 =A(2,4,5)         
A6 =A(3,4,5)         
A7 =A(10,11,12)      
A8 =A(10,11,13)      
A9 =A(10,11,14)      
A10=A(12,11,13)      
A11=A(12,11,14)      
A12=A(13,11,14)      
A13=L(4,5,6,3,-1)   
A14=L(5,6,7,3,-1)   
A15=L(6,7,8,3,-1)   
A16=L(7,8,9,14,-1)  
A17=L(8,9,10,14,-1) 
A18=L(9,10,11,14,-1)
A19=L(4,5,6,3,-2)   
A20=L(5,6,7,3,-2)   
A21=L(6,7,8,3,-2)   
A22=L(7,8,9,14,-2)  
A23=L(8,9,10,14,-2) 
A24=L(9,10,11,14,-2)
D1 =D(1,4,11,12)     
D2 =D(1,4,11,13)     
D3 =D(1,4,11,14)     
D4 =D(2,4,11,12)     
D5 =D(2,4,11,13)     
D6 =D(2,4,11,14)     
D7 =D(3,4,11,12)     
D8 =D(3,4,11,13)     
D9 =D(3,4,11,14)     

--Link1--
%mem=64mw
#p opt=calcfc pm3 geom=readallgic test

Gaussian Test Job 1137 (Part 2):
O=C=C=C=C=C=O

0 1
 O                 -2.14940102   -0.30575337    2.55855455
 C                 -1.37271931   -0.20552294    1.71486066
 C                 -0.69600655   -0.08688901    0.85481076
 C                  0.10533474    0.02132886   -0.03279334
 C                  0.76491885    0.12933625   -0.84290642
 C                  1.46106481    0.22785695   -1.63648973
 O                  2.16680848    0.33964326   -2.48603648

R1=R(1,2)
R2=R(2,3)
R3=R(3,4)
R4=R(4,5)
R5=R(5,6)
R6=R(6,7)
A1=L(1,2,3,0,-1)
A2=L(2,3,4,0,-1)
A3=L(3,4,5,0,-1)
A4=L(4,5,6,0,-1)
A5=L(5,6,7,0,-1)
A6=L(1,2,3,0,-2)
A7=L(2,3,4,0,-2)
A8=L(3,4,5,0,-2)
A9=L(4,5,6,0,-2)
A10=L(5,6,7,0,-2)

--link1--
%mem=64mw
#p opt=calcfc pm3 geom=readallgic test

Gaussian Test Job 1137 (Part 3):
O=C=C=C=C=C=O

0 1
 O                 -2.14940102   -0.30575337    2.55855455
 C                 -1.37271931   -0.20552294    1.71486066
 C                 -0.69600655   -0.08688901    0.85481076
 C                  0.10533474    0.02132886   -0.03279334
 C                  0.76491885    0.12933625   -0.84290642
 C                  1.46106481    0.22785695   -1.63648973
 O                  2.16680848    0.33964326   -2.48603648

R1=R(1,2)
R2=R(2,3)
R3=R(3,4)
R4=R(4,5)
R5=R(5,6)
R6=R(6,7)
A1=L(1,2,3,-2,-1)
A2=L(2,3,4,-2,-1)
A3=L(3,4,5,-2,-1)
A4=L(4,5,6,-2,-1)
A5=L(5,6,7,-2,-1)
A6=L(1,2,3,-1,-2)
A7=L(2,3,4,-1,-2)
A8=L(3,4,5,-1,-2)
A9=L(4,5,6,-1,-2)
A10=L(5,6,7,-1,-2)

--Link1--
%mem=64mw
#p opt=calcfc hf/6-31g geom=readallgic scf=novaracc test

Gaussian Test Job 1137 (Part 4):
CO2

0 1
 O                  0.24229594    0.65940326    0.44614583
 C                 -0.86066720    0.18895871    0.39973210
 O                 -1.81406318   -0.31842074    0.19092067

R1 = R(1,2)
R2 = R(2,3)
A1 = Linear(1,2,3,0,-1)
A2 = Linear(1,2,3,0,-2)

