#p cas(4,4)/6-31g(d,p) test
BOMD=(gradientonly,maxpoint=10,readmwvel)

Gaussian Test Job 741:
h2co->h2+co

0,1
 C,0,0.000996921,0.,-0.0351483754
 O,0,0.0583751372,0.,1.1334216404
 H,0,1.5618411491,0.,-0.649341231
 H,0,0.2651862552,0.,-1.0795362823

0
1.0d14 -2.0d14 3.0d14
4.0d14 5.0d14 -6.0d14
7.0d14 -8.0d14 9.0d14
-10.0d14 11.0d14 12.0d14

