#p rmp4dq/3-21g density=curr test geom=modela 

Gaussian Test Job 272 (Part 1):

1,1
he h

--Link1--
#p ump4dq/3-21g density=curr test geom=modela 

Gaussian Test Job 272 (Part 2):

1,1
he h

--Link1--
#p ump4dq/3-21g density=curr test geom=modela 

Gaussian Test Job 272 (Part 3):

1,3
he h

--Link1--
#p ump4dq/3-21g density=curr test geom=modela 

Gaussian Test Job 272 (Part 4):

-3,3
he h

--Link1--
#p rmp4dq/3-21g force density=curr test geom=modela 

Gaussian Test Job 272 (Part 5):

1,1
he h

--Link1--
#p ump4dq/3-21g force density=curr test geom=modela 

Gaussian Test Job 272 (Part 6):

1,1
he h

--Link1--
#p ump4dq/3-21g force density=curr test geom=modela 

Gaussian Test Job 272 (Part 7):

1,3
he h

--Link1--
#p ump4dq/3-21g force density=curr test geom=modela 

Gaussian Test Job 272 (Part 8):

-3,3
he h

--Link1--
#p rmp4sdq/3-21g density=curr test geom=modela 

Gaussian Test Job 272 (Part 9):

1,1
he h

--Link1--
#p ump4sdq/3-21g density=curr test geom=modela 

Gaussian Test Job 272 (Part 10):

1,1
he h

--Link1--
#p ump4sdq/3-21g density=curr test geom=modela 

Gaussian Test Job 272 (Part 11):

1,3
he h

--Link1--
#p ump4sdq/3-21g density=curr test geom=modela 

Gaussian Test Job 272 (Part 12):

-3,3
he h

--Link1--
#p rmp4sdq/3-21g force density=curr test geom=modela 

Gaussian Test Job 272 (Part 13):

1,1
he h

--Link1--
#p ump4sdq/3-21g force density=curr test geom=modela 

Gaussian Test Job 272 (Part 14):

1,1
he h

--Link1--
#p ump4sdq/3-21g force density=curr test geom=modela 

Gaussian Test Job 272 (Part 15):

1,3
he h

--Link1--
#p ump4sdq/3-21g force density=curr test geom=modela 

Gaussian Test Job 272 (Part 16):

-3,3
he h

