#p ublyp/6-31g* units=au test scf=tight 

Gaussian Test Job 383 (Part 1):
Benzene

1,2
n   2.62524521371020       .00000000000000       .00000000000000
c   1.31262260685510      2.27352904623654       .00000000000000
c  -1.31262260685510      2.27352904623654       .00000000000000
c  -2.62524521371020       .00000000000000       .00000000000000
c  -1.31262260685510     -2.27352904623654       .00000000000000
c   1.31262260685510     -2.27352904623654       .00000000000000
h   2.33120362457079      4.03776312054533       .00000000000000
h  -2.33120362457079      4.03776312054533       .00000000000000
h  -4.66240724914158       .00000000000000       .00000000000000
h  -2.33120362457079     -4.03776312054533       .00000000000000
h   2.33120362457079     -4.03776312054533       .00000000000000

--Link1--
#p ublyp/6-31g* units=au pop=none test scf=(tight,noincfock,novaracc)
Sparse Guess=NoSparse

Gaussian Test Job 383 (Part 2):
Benzene non-sparse guess, sparse SCF

1,2
n   2.62524521371020       .00000000000000       .00000000000000
c   1.31262260685510      2.27352904623654       .00000000000000
c  -1.31262260685510      2.27352904623654       .00000000000000
c  -2.62524521371020       .00000000000000       .00000000000000
c  -1.31262260685510     -2.27352904623654       .00000000000000
c   1.31262260685510     -2.27352904623654       .00000000000000
h   2.33120362457079      4.03776312054533       .00000000000000
h  -2.33120362457079      4.03776312054533       .00000000000000
h  -4.66240724914158       .00000000000000       .00000000000000
h  -2.33120362457079     -4.03776312054533       .00000000000000
h   2.33120362457079     -4.03776312054533       .00000000000000

--Link1--
#p ublyp/6-31g* units=au pop=none test scf=(tight,noincfock,novaracc)
Sparse

Gaussian Test Job 383 (Part 3):
Benzene sparse guess and SCF

1,2
n   2.62524521371020       .00000000000000       .00000000000000
c   1.31262260685510      2.27352904623654       .00000000000000
c  -1.31262260685510      2.27352904623654       .00000000000000
c  -2.62524521371020       .00000000000000       .00000000000000
c  -1.31262260685510     -2.27352904623654       .00000000000000
c   1.31262260685510     -2.27352904623654       .00000000000000
h   2.33120362457079      4.03776312054533       .00000000000000
h  -2.33120362457079      4.03776312054533       .00000000000000
h  -4.66240724914158       .00000000000000       .00000000000000
h  -2.33120362457079     -4.03776312054533       .00000000000000
h   2.33120362457079     -4.03776312054533       .00000000000000

--Link1--
#p ublyp/6-31g* units=au pop=none test scf=(tight,noincfock,novaracc)
Sparse fmm=print

Gaussian Test Job 383 (Part 4):
Benzene sparse guess and SCF, with FMM

1,2
n   2.62524521371020       .00000000000000       .00000000000000
c   1.31262260685510      2.27352904623654       .00000000000000
c  -1.31262260685510      2.27352904623654       .00000000000000
c  -2.62524521371020       .00000000000000       .00000000000000
c  -1.31262260685510     -2.27352904623654       .00000000000000
c   1.31262260685510     -2.27352904623654       .00000000000000
h   2.33120362457079      4.03776312054533       .00000000000000
h  -2.33120362457079      4.03776312054533       .00000000000000
h  -4.66240724914158       .00000000000000       .00000000000000
h  -2.33120362457079     -4.03776312054533       .00000000000000
h   2.33120362457079     -4.03776312054533       .00000000000000

