#p amber opt=tight freq test

Gaussian Test 423:
Butane AMBER

0,1
C-CT--0.25      .010720    -.000147     .019982
C-CT--0.25     -.003671    -.001108    1.552136
C-CT--0.25     1.429829    -.000496    2.094942
C-CT--0.25     1.415438    -.001458    3.627096
H-HC-0.1    -1.012976    -.000591    -.356686
H-HC-0.1      .523857    -.888970    -.350136
H-HC-0.1      .522678     .889814    -.349030
H-HC-0.1     -.531884    -.889107    1.907177
H-HC-0.1     -.533060     .885747    1.908280
H-HC-0.1     1.958042     .887502    1.739901
H-HC-0.1     1.959218    -.887352    1.738798
H-HC-0.1     2.439134    -.001013    4.003764
H-HC-0.1      .903480    -.891419    3.996108
H-HC-0.1      .902301     .887365    3.997213

