#p casscf(4,4)/6-311++g(d,p) mp2 test scfcyc=128

Gaussian Test Job 1175:
CAS-MP2 with pure functions

0 1
 C                  0.25365700   -0.06704900   -0.00001800
 C                 -1.07419600   -0.59439200    0.00000100
 O                 -0.71379100    0.85685900    0.00000500
 H                 -1.52065400   -0.93431100    0.91668700
 H                 -1.52067800   -0.93430900   -0.91667300
 C                  1.57407100   -0.12086500    0.00000600
 H                  2.15981600    0.77912700    0.00001800
 H                  2.07065100   -1.07154200   -0.00000400

