#p test gen 6d bpw91 opt freq

Gaussian Test Job 445:
(H2PCH2CH2PH2)PdCl2(CH3)2 benchmark optimization
 ... bpw91/dzvp//bpw91/dzvp

0 1
         46        0.000000    0.000000   -0.596753
         15        1.603031    0.101455    1.229408
         15       -1.603031   -0.101455    1.229408
         17        0.000000    2.270951   -0.621399
         17        0.000000   -2.270951   -0.621399
          6        1.417417    0.000000   -2.175844
          6       -1.417417    0.000000   -2.175844
          6        0.657473    0.390309    2.827136
          6       -0.657473   -0.390309    2.827136
          1        2.421288   -1.009087    1.603124
          1        2.613106    1.100809    1.341859
          1        1.272465    0.136075    3.704177
          1        0.444504    1.470543    2.873229
          1       -1.272465   -0.136075    3.704177
          1       -0.444504   -1.470543    2.873229
          1       -2.613106   -1.100809    1.341859
          1       -2.421288    1.009087    1.603124
          1        1.549974    0.994520   -2.550432
          1        2.363925   -0.425290   -1.780155
          1        1.043843   -0.687687   -2.970593
          1       -1.549974   -0.994520   -2.550432
          1       -2.363925    0.425290   -1.780155
          1       -1.043843    0.687687   -2.970593

 -H 0
 S    4 1.00
    5.099917800E+01    9.660476100E-03
    7.483218100E+00    7.372886000E-02
    1.777467600E+00    2.958580800E-01
    5.193295200E-01    7.159053200E-01
 S    1 1.00
    1.541100000E-01    1.000000000E+00
 ****
 -C 0
 S    6 1.00
    2.808064500E+03    2.017830600E-03
    4.211382800E+02    1.543320200E-02
    9.558661600E+01    7.558154900E-02
    2.673900400E+01    2.478282000E-01
    8.432826800E+00    4.793725000E-01
    2.760582100E+00    3.338343800E-01
 S    2 1.00
    5.447004500E+00   -7.784077100E-02
    4.792422000E-01    5.689559900E-01
 S    1 1.00
    1.461565300E-01    1.000000000E+00
 P    4 1.00
    1.813085200E+01    1.585473300E-02
    4.099883200E+00    9.568276900E-02
    1.185837000E+00    3.049119100E-01
    3.685974000E-01    4.935016500E-01
 P    1 1.00
    1.097199900E-01    1.000000000E+00
 D    1 1.00
    6.000000000E-01    1.000000000E+00
 ****
 -P 0
 S    6 1.00
    2.002493600E+04   -1.778722700E-03
    2.999441000E+03   -1.365406500E-02
    6.790868000E+02   -6.814415500E-02
    1.899438900E+02   -2.336137100E-01
    6.068347700E+01   -4.757401100E-01
    2.039822500E+01   -3.535470000E-01
 S    3 1.00
    4.059416300E+01   -9.224272100E-02
    4.197219600E+00    5.774676900E-01
    1.519295500E+00    4.983773100E-01
 S    2 1.00
    2.445858700E+00    1.631695000E-01
    3.116158400E-01   -6.787174200E-01
 S    1 1.00
    1.120101300E-01    1.000000000E+00
 P    5 1.00
    1.953993700E+02   -1.162982400E-02
    4.566674900E+01   -8.114132400E-02
    1.407306700E+01   -2.837706400E-01
    4.757242700E+00   -5.004074100E-01
    1.603506500E+00   -3.357757600E-01
 P    2 1.00
    7.039431800E-01   -2.471697200E-01
    2.451144600E-01   -5.552024700E-01
 P    1 1.00
    8.313240400E-02    1.000000000E+00
 D    1 1.00
    5.500000000E-01    1.000000000E+00
 ****
 -CL 0
 S    6 1.00
    2.635145800E+04    1.732428900E-03
    3.945056700E+03    1.331093900E-02
    8.924383500E+02    6.667482600E-02
    2.494174300E+02    2.300505700E-01
    7.972157200E+01    4.742306900E-01
    2.683114500E+01    3.595239900E-01
 S    3 1.00
    5.278530100E+01   -9.562958700E-02
    5.615642900E+00    5.880840300E-01
    2.105907600E+00    4.866982300E-01
 S    2 1.00
    3.558614900E+00    1.806891200E-01
    4.847980700E-01   -6.884828700E-01
 S    1 1.00
    1.733309800E-01    1.000000000E+00
 P    5 1.00
    2.710782100E+02   -1.092566700E-02
    6.354720800E+01   -7.759090900E-02
    1.973710900E+01   -2.775158500E-01
    6.788993700E+00   -5.031933100E-01
    2.348030300E+00   -3.348425900E-01
 P    2 1.00
    1.106686400E+00   -2.765381200E-01
    3.829680400E-01   -5.466767700E-01
 P    1 1.00
    1.251133000E-01    1.000000000E+00
 D    1 1.00
    7.500000000E-01    1.000000000E+00
 ****
 -PD 0
 S    6 1.00
    2.071931000E+05    1.616588600E-03
    3.106377200E+04    1.238215700E-02
    7.047749500E+03    6.223229900E-02
    1.981200100E+03    2.169218700E-01
    6.427533800E+02    4.638187400E-01
    2.209533400E+02    3.832771100E-01
 S    3 1.00
    4.200886000E+02    1.127446100E-01
    5.104383900E+01   -6.311857700E-01
    2.186011700E+01   -4.431819100E-01
 S    3 1.00
    4.020133600E+01    2.579690000E-01
    7.076001100E+00   -8.079525800E-01
    3.208693100E+00   -3.361730200E-01
 S    3 1.00
    6.104196700E+00   -3.123386100E-01
    1.317924900E+00    7.911463300E-01
    5.534536900E-01    3.986219000E-01
 S    2 1.00
    8.233602700E-01   -1.623036700E-01
    1.088225700E-01    6.448049500E-01
 S    1 1.00
    4.012675400E-02    1.000000000E+00
 P    5 1.00
    2.972421400E+03   -7.509077100E-03
    7.021149000E+02   -5.770113200E-02
    2.240646400E+02   -2.390153200E-01
    8.102367800E+01   -5.076466000E-01
    3.072530500E+01   -3.589804100E-01
 P    3 1.00
    1.232597100E+02    2.423583500E-02
    1.451192800E+01   -4.968331300E-01
    5.448828600E+00   -5.770063700E-01
 P    2 1.00
    2.332294900E+00    4.036794300E-01
    9.711258800E-01    5.333647900E-01
 P    1 1.00
    3.928289300E-01    1.000000000E+00
 P    1 1.00
    9.040000000E-02    1.000000000E+00
 D    5 1.00
    2.826718700E+02    1.383088200E-02
    8.316509800E+01    9.683266800E-02
    3.035853800E+01    3.155661200E-01
    1.186274800E+01    5.007091600E-01
    4.571001300E+00    3.072451400E-01
 D    3 1.00
    3.593651500E+00    2.314602700E-01
    1.259972600E+00    5.150304000E-01
    4.004196100E-01    4.655096000E-01
 D    1 1.00
    9.520000000E-02    1.000000000E+00
 ****

