#p rhf/6-31g(df,pd) test force

H8 octahedral

0,1
H 0.00 0.00 0.00
H 0.75 0.00 0.00
H 0.00 0.75 0.00
H 0.00 0.00 0.75
H 0.75 0.75 0.00
H 0.75 0.00 0.75
H 0.00 0.75 0.75
H 0.75 0.75 0.75

--Link1--
#p rhf/6-31g(df,pd) test freq 

H8 octahedral

0,1
H 0.00 0.00 0.00
H 0.75 0.00 0.00
H 0.00 0.75 0.00
H 0.00 0.00 0.75
H 0.75 0.75 0.00
H 0.75 0.00 0.75
H 0.00 0.75 0.75
H 0.75 0.75 0.75

