#p oniom(mp2/6-31g*:apfd/3-21g) test int=ultrafine force 
 
Gaussian Test Job 831:
Water APF+D dimer oniom
 
0,1
          8        0.000000    0.000000    2.983080 L
          8        0.000000    0.000000    0.000000 H
          1        0.493916    0.756507   -0.288421 H
          1       -0.912504    0.000000    3.235827 L
          1       -0.008917    0.000000    2.031392 L
          1        0.493916   -0.756507   -0.288421 H

--Link1--
#p oniom(mp2/6-31g*:apfd/3-21g) test int=ultrafine freq
 
Gaussian Test Job 831:
Water APF+D dimer oniom
 
0,1
          8        0.000000    0.000000    2.983080 L
          8        0.000000    0.000000    0.000000 H
          1        0.493916    0.756507   -0.288421 H
          1       -0.912504    0.000000    3.235827 L
          1       -0.008917    0.000000    2.031392 L
          1        0.493916   -0.756507   -0.288421 H

