#p MP2/6-311G(2df,p) force symm=loose MaxDisk=250000000 test
iop1=timestamp

Gaussian Test Job 420 (Part 1):
Trimethylsilylacetylene, MP2/6-311G(2df,p) force

0,1
H  .000000     .000000   -3.838716
C  .000000     .000000   -2.770205
C  .000000     .000000   -1.539963
Si .000000     .000000     .303812
C  .000000    1.784794     .900328
C  1.545677    -.892397     .900328
C  -1.545677    -.892397     .900328
H  -.883900    2.321071     .543001
H  2.452056    -.395056     .543001
H  -1.568156   -1.926015     .543001
H  .000146    1.828788    1.994387
H  1.583704    -.914521    1.994387
H  -1.583850    -.914267    1.994387
H  .883758    2.321146     .542763
H  1.568292   -1.925930     .542763
H  -2.452050    -.395216     .542763

--Link1--
#p MP2/6-311G(2df,p) force symm=loose MaxDisk=250000000 test
iop1=nopacksort

Gaussian Test Job 420 (Part 2):
Trimethylsilylacetylene, MP2/6-311G(2df,p) force
full integers in sorting

0,1
H  .000000     .000000   -3.838716
C  .000000     .000000   -2.770205
C  .000000     .000000   -1.539963
Si .000000     .000000     .303812
C  .000000    1.784794     .900328
C  1.545677    -.892397     .900328
C  -1.545677    -.892397     .900328
H  -.883900    2.321071     .543001
H  2.452056    -.395056     .543001
H  -1.568156   -1.926015     .543001
H  .000146    1.828788    1.994387
H  1.583704    -.914521    1.994387
H  -1.583850    -.914267    1.994387
H  .883758    2.321146     .542763
H  1.568292   -1.925930     .542763
H  -2.452050    -.395216     .542763

