%chk=test0 scf=tight180
#p rhf/genecp 5d 7f test scf=tight geom=modela

Gaussian Test Job 180 (Part 1):
Formaldehyde 5d 7f energy with ECP

0,1
c h h o

  C 0
lp-31g*
 F    1 1.00
  0.1000000000D+01  0.1000000000D+01
 ****
  o 0
lp-31g*
 F    1 1.00
  0.1100000000D+01  0.1000000000D+01
 ****
  H 
6-31g
 ****

o
OPOT 2 2
         D AND UP
3
        1       80.0000000       -1.60000000
        1       30.0000000       -0.40000000
        2        1.0953760       -0.06623814
         S-D
3
        0        0.9212952        0.39552179
        0       28.6481971        2.51654843
        2        9.3033500       17.04478500
         P-D
2
        2       52.3427019       27.97790770
        2       30.7220233      -16.49630500
c
lp-31g

--Link1--
%chk=test0 scf=tight180
%nosave
#p rhf/chkbas guess=read geom=check test scf=tight

Gaussian Test Job 180 (Part 2):
Formaldehyde 5d 7f reading ecp from chk file

0,1

--Link1--
#p rhf/gen pseudo=old 5d 7f test scf=tight geom=modela

Gaussian Test Job 180 (Part 3):
Formaldehyde 5d 7f energy with ECP in old format

0,1
c h h o

  C 0
 SP   3 1.00
  0.1675097360D+02 -0.7812840500D-01  0.3088908800D-01
  0.2888377460D+01 -0.3741108860D+00  0.2645728130D+00
  0.6904575040D+00  0.1229059640D+01  0.8225024920D+00
 SP   1 1.00
  0.1813976910D+00  0.1000000000D+01  0.1000000000D+01
 D    1 1.00
  0.8000000000D+00  0.1000000000D+01
 F    1 1.00
  0.1000000000D+01  0.1000000000D+01
 ****
  o 0
 SP   3 1.00
  0.1842936330D+02 -0.1218775590D+00  0.5975796600D-01
  0.4047420810D+01 -0.1962142380D+00  0.3267825930D+00
  0.1093836980D+01  0.1156987900D+01  0.7484058930D+00
 SP   1 1.00
  0.2906290230D+00  0.1000000000D+01  0.1000000000D+01
 D    1 1.00
  0.8000000000D+00  0.1000000000D+01
 F    1 1.00
  0.1100000000D+01  0.1000000000D+01
 ****
  H 0
 S    3 1.00
  0.1873113696D+02  0.3349460434D-01
  0.2825394365D+01  0.2347269535D+00
  0.6401216923D+00  0.8137573262D+00
 S    1 1.00
  0.1612777588D+00  0.1000000000D+01
 ****

 7 7 9 9
CPOT 2 2
         D AND UP
3
        1       80.0000000       -1.60000000
        1       30.0000000       -0.40000000
        2        0.5498205       -0.03990210
         S-D
3
        0        0.7374760        0.63810832
        0      135.2354832       11.00916230
        2        8.5605569       20.13797020
         P-D
2
        2       10.6863587       -3.24684280
        2       23.4979897        0.78505765
OPOT 2 2
         D AND UP
3
        1       80.0000000       -1.60000000
        1       30.0000000       -0.40000000
        2        1.0953760       -0.06623814
         S-D
3
        0        0.9212952        0.39552179
        0       28.6481971        2.51654843
        2        9.3033500       17.04478500
         P-D
2
        2       52.3427019       27.97790770
        2       30.7220233      -16.49630500

--Link1--
#p rhf/gen pseudo=read 5d 7f test scf=tight geom=modela

Gaussian Test Job 180 (Part 4):
Formaldehyde 5d 7f energy with ECP, different input style

0,1
c h h o

  C 0
lp-31g*
 F    1 1.00
  0.1000000000D+01  0.1000000000D+01
 ****
  o 0
lp-31g*
 F    1 1.00
  0.1100000000D+01  0.1000000000D+01
 ****
  H 
6-31g
 ****

o c h h
lp-31g

--Link1--
#p rhf/gen pseudo=chf 5d 7f test scf=tight geom=modela

Gaussian Test Job 180 (Part 5):
Formaldehyde 5d 7f energy with ECP defaulted

0,1
c h h o

  C 0
lp-31g*
 F    1 1.00
  0.1000000000D+01  0.1000000000D+01
 ****
  o 0
lp-31g*
 F    1 1.00
  0.1100000000D+01  0.1000000000D+01
 ****
  H 
6-31g
 ****

