#p blyp/6-31G(d) 5d test polar=dcshg cphf=(rdfreq,conver=10,ultrafine)
int=(acc2e=12,ultrafine)

Gaussian Test Job 1189 (Part 1):
pNA 0, 0.650eV, 1.170eV, 1.361eV, 1.494eV  (b3lyp/cc-pVTZ geometry)
interchange

0 1
 C           0     0.000000     0.000000     -0.707159
 C           0     1.209349     0.000000     -0.019033
 C           0     1.210038     0.000000      1.359778
 C           0     0.000000     0.000000      2.078395
 C           0    -1.210038     0.000000      1.359778
 C           0    -1.209349     0.000000     -0.019033
 H           0     2.132892     0.000000     -0.576813
 H           0     2.149517     0.000000      1.897086
 H           0    -2.149517     0.000000      1.897086
 H           0    -2.132892     0.000000     -0.576813
 H           0    -0.858245     0.000000      3.959727
 H           0     0.858245     0.000000      3.959727
 N           0     0.000000     0.000000      3.442782
 N           0     0.000000     0.000000     -2.164445
 O           0    -1.083400     0.000000     -2.739044
 O           0     1.083400     0.000000     -2.739044

0.0 0.023887 0.042997 0.050016 0.054903

--Link1--
#p blyp/6-31G(d) 5d test polar=dcshg cphf=(rdfreq,conver=10,ultrafine)
int=(acc2e=12,ultrafine) iop(10/13=20,10/14=22) iop(10/77=0)

Gaussian Test Job 1189 (Part 2):
pNA 0, 0.650eV, 1.170eV, 1.361eV, 1.494eV  (b3lyp/cc-pVTZ geometry)
2nd order cphf

0 1
 C           0     0.000000     0.000000     -0.707159
 C           0     1.209349     0.000000     -0.019033
 C           0     1.210038     0.000000      1.359778
 C           0     0.000000     0.000000      2.078395
 C           0    -1.210038     0.000000      1.359778
 C           0    -1.209349     0.000000     -0.019033
 H           0     2.132892     0.000000     -0.576813
 H           0     2.149517     0.000000      1.897086
 H           0    -2.149517     0.000000      1.897086
 H           0    -2.132892     0.000000     -0.576813
 H           0    -0.858245     0.000000      3.959727
 H           0     0.858245     0.000000      3.959727
 N           0     0.000000     0.000000      3.442782
 N           0     0.000000     0.000000     -2.164445
 O           0    -1.083400     0.000000     -2.739044
 O           0     1.083400     0.000000     -2.739044

0.0 0.023887 0.042997 0.050016 0.054903

