%mem=20gb
%kjob l302 4
#p lsda/sto-3g opt=modredundant test

Gaussian Test Job 1173 (Part 1):
Ice Ih geometry optimization (a few iteration)
using default old redundant coordinates (with two coordinates removed); some debugging

0 1
 O                  3.27917734    0.65284013    0.52994514
 O                  3.27917287    3.26419280    4.21344515
 O                  3.27917287    3.26419280    6.97017655
 O                  3.27917734    0.65284013    3.28667654
 H                  3.27917287    3.26419280    5.96826455
 H                  3.27917734    0.65284013    2.28476454
 H                  4.10530111    3.74115815    7.29948144
 H                  4.71454923    4.09290770    3.61598145
 H                  4.10530103    0.17587478    0.20064025
 H                  4.71454914   -0.17587478    3.88414024
 H                  3.27917510    1.60676691    0.20064025
 H                  3.27917511    2.31026602    3.88414024
 Tv                 4.52300009    0.00000000    0.00000000
 Tv                 2.26150013    3.91703293    0.00000000
 Tv                 0.00000000    0.00000000    7.36700000

L  2   5   3  15  R
L  2  12   4  14  R

--Link1--
%mem=20gb
%kjob l302 4
#p lsda/sto-3g opt=readallgic test

Gaussian Test Job 1173 (Part 2):
Ice Ih geometry optimization (a few iterations)
using Part 1's coordinates from the GIC input

0 1
 O                  3.27917734    0.65284013    0.52994514
 O                  3.27917287    3.26419280    4.21344515
 O                  3.27917287    3.26419280    6.97017655
 O                  3.27917734    0.65284013    3.28667654
 H                  3.27917287    3.26419280    5.96826455
 H                  3.27917734    0.65284013    2.28476454
 H                  4.10530111    3.74115815    7.29948144
 H                  4.71454923    4.09290770    3.61598145
 H                  4.10530103    0.17587478    0.20064025
 H                  4.71454914   -0.17587478    3.88414024
 H                  3.27917510    1.60676691    0.20064025
 H                  3.27917511    2.31026602    3.88414024
 Tv                 4.52300009    0.00000000    0.00000000
 Tv                 2.26150013    3.91703293    0.00000000
 Tv                 0.00000000    0.00000000    7.36700000

R(1,6)             
R(1,9)               
R(1,11)              
R(2,5)               
R(2,8)               
R(2,12)              
R(3,5)               
R(3,7)               
R(3,26)              
R(4,6)               
R(4,10)              
R(4,12)              
R(7,46)              
R(8,34)              
R(40,62)             
R(54,63)             
A(6,1,9)             
A(6,1,11)            
A(9,1,11)            
A(5,2,8)             
A(5,2,12)            
A(8,2,12)            
A(5,3,7)             
A(5,3,26)            
A(7,3,26)            
A(6,4,10)            
A(6,4,12)            
A(10,4,12)           
A(8,34,36)           
A(8,34,40)           
A(8,34,42)           
A(7,46,51)           
A(7,46,54)           
A(7,46,56)           
A(40,62,65)          
A(40,62,68)          
A(40,62,72)          
A(54,63,65)          
A(54,63,67)          
A(54,63,86)          
L(1,6,4,8,-1)        
L(3,7,46,8,-1)       
L(2,8,34,1,-1)       
L(3,26,16,1,-1)      
L(34,40,62,3,-1)     
L(46,54,63,1,-1)     
L(1,6,4,8,-2)        
L(3,7,46,8,-2)       
L(2,8,34,1,-2)       
L(3,26,16,1,-2)      
L(34,40,62,3,-2)     
L(46,54,63,1,-2)     
D(9,1,4,10)          
D(9,1,4,12)         
D(11,1,4,10)        
D(11,1,4,12)        
D(8,2,3,7)          
D(8,2,3,26)         
D(12,2,3,7)         
D(12,2,3,26)        
D(5,2,4,6)          
D(5,2,4,10)         
D(8,2,4,6)          
D(8,2,4,10)         
D(5,2,34,36)        
D(5,2,34,40)        
D(5,2,34,42)        
D(12,2,34,36)       
D(12,2,34,40)       
D(12,2,34,42)       
D(5,3,16,21)        
D(5,3,16,24)        
D(7,3,16,21)        
D(7,3,16,24)        
D(5,3,46,51)        
D(5,3,46,54)        
D(5,3,46,56)        
D(26,3,46,51)       
D(26,3,46,54)       
D(26,3,46,56)       
D(39,31,34,8)       
D(41,31,34,8)       
D(35,32,34,8)       
D(38,32,34,8)       
D(35,33,46,7)       
D(37,33,46,7)       
D(8,34,62,65)       
D(8,34,62,68)       
D(8,34,62,72)       
D(36,34,62,65)      
D(36,34,62,68)      
D(36,34,62,72)      
D(42,34,62,65)      
D(42,34,62,68)      
D(42,34,62,72)      
D(7,46,49,23)       
D(7,46,49,55)       
D(7,46,49,57)       
D(7,46,63,65)       
D(7,46,63,67)       
D(7,46,63,86)       
D(51,46,63,65)      
D(51,46,63,67)      
D(51,46,63,86)      
D(56,46,63,65)      
D(56,46,63,67)      
D(56,46,63,86)      
D(40,62,63,54)      
D(40,62,63,67)      
D(40,62,63,86)      
D(68,62,63,54)      
D(72,62,63,54)      
D(40,62,64,66)      
D(40,62,64,70)      
D(40,62,94,96)      
D(40,62,94,100)     
D(40,62,94,102)     
D(54,63,76,81)      
D(54,63,76,84)      
D(54,63,106,111)    
D(54,63,106,114) 
D(54,63,106,116) 

--Link1--
%mem=20gb
%kjob l302 4
#p lsda/sto-3g opt=gic test

Gaussian Test Job 1173 (Part 3):
Ice Ih geometry optimization (a few iterations)
using default GIC settings

0 1
 O                  3.27917734    0.65284013    0.52994514
 O                  3.27917287    3.26419280    4.21344515
 O                  3.27917287    3.26419280    6.97017655
 O                  3.27917734    0.65284013    3.28667654
 H                  3.27917287    3.26419280    5.96826455
 H                  3.27917734    0.65284013    2.28476454
 H                  4.10530111    3.74115815    7.29948144
 H                  4.71454923    4.09290770    3.61598145
 H                  4.10530103    0.17587478    0.20064025
 H                  4.71454914   -0.17587478    3.88414024
 H                  3.27917510    1.60676691    0.20064025
 H                  3.27917511    2.31026602    3.88414024
 Tv                 4.52300009    0.00000000    0.00000000
 Tv                 2.26150013    3.91703293    0.00000000
 Tv                 0.00000000    0.00000000    7.36700000

--Link1--
%mem=20gb
%kjob l302 4
#p lsda/sto-3g opt=addgic test

Gaussian Test Job 1173 (Part 4):
Ice Ih geometry optimization (a few iterations)
same coordinates as in Part 3 plus 2 additional ones

0 1
 O                  3.27917734    0.65284013    0.52994514
 O                  3.27917287    3.26419280    4.21344515
 O                  3.27917287    3.26419280    6.97017655
 O                  3.27917734    0.65284013    3.28667654
 H                  3.27917287    3.26419280    5.96826455
 H                  3.27917734    0.65284013    2.28476454
 H                  4.10530111    3.74115815    7.29948144
 H                  4.71454923    4.09290770    3.61598145
 H                  4.10530103    0.17587478    0.20064025
 H                  4.71454914   -0.17587478    3.88414024
 H                  3.27917510    1.60676691    0.20064025
 H                  3.27917511    2.31026602    3.88414024
 Tv                 4.52300009    0.00000000    0.00000000
 Tv                 2.26150013    3.91703293    0.00000000
 Tv                 0.00000000    0.00000000    7.36700000

 R2p3 = [R(1,9) + R(1,11)]/sqrt(2)
 [R(4,10)+R(4,12)+R(7,46)]/sqrt(3)

