#p opt freq dreiding geom=connectivity test

Gaussian Test Job 350:
D3d test case

0,1
C,0.6976505057,1.2083665551,0.
C,-1.3953013867,-0.0000002166,0.
C,1.3953013867,0.0000002166,0.
C,-0.6976508809,1.2083663385,0.
C,-0.6976505057,-1.2083665551,0.
C,0.6976508809,-1.2083663385,0.
H,-1.8450016844,1.0652118372,0.8944133178
H,0.0000003307,-2.1304242473,0.8944133178
H,-1.8450013537,-1.0652124101,-0.8944133178
H,1.8450016844,-1.0652118372,-0.8944133178
H,-0.0000003307,2.1304242473,-0.8944133178
H,1.8450013537,1.0652124101,0.8944133178
F,-2.2564748776,1.3027759109,-1.3815012097
F,0.0000004045,-2.6055525224,-1.3815012097
F,-2.2564744731,-1.3027766115,1.3815012097
F,2.2564748776,-1.3027759109,1.3815012097
F,-0.0000004045,2.6055525224,1.3815012097
F,2.2564744731,1.3027766115,-1.3815012097

 1 3 1.5 4 1.5 18 1.0 12 1.0
 2 4 1.5 5 1.5 13 1.0 7 1.0
 3 6 1.5 16 1.0 10 1.0
 4 11 1.0 17 1.0
 5 6 1.5 9 1.0 15 1.0
 6 14 1.0 8 1.0
 7
 8
 9
 10
 11
 12
 13
 14
 15
 16
 17
 18

