%mem=300mw
#p UFF opt=(calcfc,nomicro,AddGIC) test

Gaussian Test Job 1196:
Generate the default GICs for the NO3- @ C60 ... H3O+ complex, generate 
the centroid Cartesian coordinates for the fragments NO3-, H3O+, and C60 
(F1, F2, and F3, respectfully), and then optimize the distances between 
them along with the remaining internal coordinates. 

 0 1
   7      0.146976   -0.000322    0.003810
   8      0.086264    0.998952    0.689386
   8      0.086539   -1.095181    0.523266
   8      0.265373    0.095107   -1.199427
   8     -5.726568    0.007441   -0.067188
   1     -5.296578    0.910371   -0.239813
   1     -5.332695   -0.301664    0.813393
   1     -5.321712   -0.608100   -0.761521
   6     -3.145570    0.104936   -1.278015
   6     -3.161947    1.218306   -0.322177
   6     -2.416449    2.358784   -0.583280
   6     -1.641884    2.460878   -1.822518
   6     -1.633472    1.413601   -2.735142
   6     -2.398300    0.198408   -2.442994
   6     -3.161086   -1.146960   -0.512718
   6     -3.176947   -0.808859    0.914667
   6     -3.173276    0.654609    1.032341
   6     -2.450334    1.270611    2.043070
   6     -1.673969    3.025096    0.491034
   6     -0.405201    3.179816   -1.511559
   6      0.772990    2.792408   -2.130995
   6      0.785284    1.688854   -3.103667
   6     -0.391755    1.015406   -3.410914
   6     -0.392520   -0.454641   -3.529706
   6     -1.634907   -0.954808   -2.926639
   6     -1.644288   -2.134796   -2.193570
   6     -2.419089   -2.232082   -0.954086
   6     -2.451246   -1.578923    1.812710
   6     -1.694240   -2.749722    1.354258
   6     -1.676719   -3.062307   -0.000263
   6     -0.426563   -3.471812   -0.650265
   6     -0.408333   -2.895521   -2.002010
   6      0.770291   -2.415035   -2.551460
   6      0.783841   -1.169849   -3.334697
   6      2.029182   -0.454539   -3.016897
   6      2.029921    0.930643   -2.905047
   6     -0.423020    3.532006   -0.084895
   6      3.468526    1.146311    0.515842
   6      2.743897    2.238922    0.965696
   6      1.967918    2.148827    2.207544
   6      1.956154    0.957422    2.920138
   6      2.722384   -0.198736    2.444808
   6      3.467358   -1.217619    0.325033
   6      3.485775   -0.653406   -1.026783
   6      3.486554    0.806229   -0.908959
   6      2.776460    1.574517   -1.817077
   6      2.004520    2.725330   -1.339919
   6      1.989548    3.053151    0.009464
   6      0.730194    2.924165    2.030183
   6     -0.458061    2.448701    2.578582
   6     -0.465096    1.178795    3.324691
   6      0.705203    0.454659    3.494902
   6      0.704491   -1.010162    3.376867
   6      1.955011   -1.415430    2.728762
   6      1.965667   -2.477123    1.834304
   6      2.741583   -2.367490    0.593935
   6      2.775002   -1.265344   -2.046357
   6      2.001792   -2.476929   -1.759841
   6      1.986460   -3.016910   -0.480486
   6      0.741189   -3.538588    0.096893
   6      0.727118   -3.212679    1.535015
   6     -0.460752   -2.830130    2.152594
   6     -0.466576   -1.696303    3.092791
   6     -1.699136   -0.929482    2.888319
   6     -1.698221    0.455868    2.999857
   6      0.744783    3.476934    0.663099
   6     -1.691447    2.498619    1.777681
   6      3.459523   -0.104776    1.276685

! Define the center of Fragment 1 (NO3-) but don't include it in optimization
XC1(Inactive)=XCntr(1-4)
YC1(Inactive)=YCntr(1-4)
ZC1(Inactive)=ZCntr(1-4)
! Define the center of Fragment 2 (H3O+) but don't include it in optimization
XC2(Inactive)=XCntr(5-8)
YC2(Inactive)=YCntr(5-8)
ZC2(Inactive)=ZCntr(5-8)
! Define the center of Fragment 3 (C60) but don't include it in optimization
! The YC3 expression given as an alternative input example is the same as YCntr(9-68)
XC3(Inactive)=XCntr(9-68)
YC3(Inactive)=[Y(9)+Y(10)+Y(11)+Y(12)+Y(13)+Y(14)+Y(15)+Y(16)+Y(17)+Y(18)+Y(19)+Y(20)+Y(21)+Y(22)+Y(23)+Y(24)+Y(25)+Y(26)+Y(27)+Y(28)+Y(29)+Y(30)+Y(31)+Y(32)+Y(33)+Y(34)+Y(35)+Y(36)+Y(37)+Y(38)+Y(39)+Y(40)+Y(41)+Y(42)+Y(43)+Y(44)+Y(45)+Y(46)+Y(47)+Y(48)+Y(49)+Y(50)+Y(51)+Y(52)+Y(53)+Y(54)+Y(55)+Y(56)+Y(57)+Y(58)+Y(59)+Y(60)+Y(61)+Y(62)+Y(63)+Y(64)+Y(65)+Y(66)+Y(67)+Y(68)]/60
ZC3(Inactive)=ZCntr(9-68)
! Define the distances F1-F3, F2-F3, and F1-F2 in Angstroms and include them in optimization
F1F3=sqrt[(XC1-XC3)^2+(YC1-YC3)^2+(ZC1-ZC3)^2]*0.529177
F2F3=sqrt[(XC2-XC3)^2+(YC2-YC3)^2+(ZC2-ZC3)^2]*0.529177
F1F2=sqrt[(XC1-XC2)^2+(YC1-YC2)^2+(ZC1-ZC2)^2]*0.529177

