#P B3LYP/6-31g* test BOMD(Phase=(1,2,3),MaxPoints=20,RTemp=323,StepSize=600,ReadMWVel,NSample=6,GradOnly)

Gaussian Test Job 1089:
dissociation example from the manual
to test defaulting fragmentation criteria

0 1
6           0        0.086035    0.595827   -0.008880
8           0        0.049503   -0.617918    0.003293
1           0       -1.551831    1.164663   -0.012673
1           0       -0.258212    1.547731    0.066141


-1
1 1 2 2
1  -0.226484  2   0.968343  3   1.32008  4   1.72933  5   2.77421  6   4.47471
-2.919286350278D+12  1.276532634617D+13  2.353194781953D+13
-3.888424137753D+12 -4.344698349526D+12 -1.007561146777D+13
 6.793208498929D+13 -1.167499760085D+13  9.732625407579D+12
-4.236798095492D+13 -1.506494198810D+13 -5.079330563811D+13

