#P rccsd(t,e4t)/gen test

Gaussian Test Job 234 (Part 1):
F-.

-1 1
F

-F
s 6 1.0
9994.79 .002017
1506.03 .015295
350.269 .073110
104.053 .246420
34.8432 .612593
4.3688  .242489
s 1 1.0
12.2164 1.0
s 1 1.0
1.2078  1.0
s 1 1.0
.3634   1.0
p 4 1.0
44.3555 .020868
10.0820 .130092
2.9959  .396219
.9383   .620368
p 1 1.0
.2733   1.0
p 1 1.0
.074 1.0
d 1 1.0
1.6 1.0
****

--Link1--
#P rccsd/gen test tran=full

Gaussian Test Job 234 (Part 2):
F-.

-1 1
F

-F
s 6 1.0
9994.79 .002017
1506.03 .015295
350.269 .073110
104.053 .246420
34.8432 .612593
4.3688  .242489
s 1 1.0
12.2164 1.0
s 1 1.0
1.2078  1.0
s 1 1.0
.3634   1.0
p 4 1.0
44.3555 .020868
10.0820 .130092
2.9959  .396219
.9383   .620368
p 1 1.0
.2733   1.0
p 1 1.0
.074 1.0
d 1 1.0
1.6 1.0
****

