#p b3lyp/6-31g* symm=loose nmr=csgt test iop(10/93=1)

Gaussian Test Job 978 (Part 1):
AICD calculation over all orbitals

0 1
 C                  1.20809735    0.69749533   -0.00000000
 C                  0.00000000    1.39499067   -0.00000000
 C                 -1.20809735    0.69749533   -0.00000000
 C                 -1.20809735   -0.69749533   -0.00000000
 C                  0.00000000   -1.39499067   -0.00000000
 C                  1.20809735   -0.69749533   -0.00000000
 H                  2.16038781    1.24730049   -0.00000000
 H                  0.00000000    2.49460097   -0.00000000
 H                 -2.16038781    1.24730049   -0.00000000
 H                 -2.16038781   -1.24730049   -0.00000000
 H                  0.00000000   -2.49460097   -0.00000000
 H                  2.16038781   -1.24730049   -0.00000000

test0978a.txt

--Link1--
#p b3lyp/6-31g* symm=loose nmr=csgt test iop(10/93=2)

Gaussian Test Job 978 (Part 2):
AICD calculation over pi orbitals

0 1
 C                  1.20809735    0.69749533   -0.00000000
 C                  0.00000000    1.39499067   -0.00000000
 C                 -1.20809735    0.69749533   -0.00000000
 C                 -1.20809735   -0.69749533   -0.00000000
 C                  0.00000000   -1.39499067   -0.00000000
 C                  1.20809735   -0.69749533   -0.00000000
 H                  2.16038781    1.24730049   -0.00000000
 H                  0.00000000    2.49460097   -0.00000000
 H                 -2.16038781    1.24730049   -0.00000000
 H                 -2.16038781   -1.24730049   -0.00000000
 H                  0.00000000   -2.49460097   -0.00000000
 H                  2.16038781   -1.24730049   -0.00000000

test0978b.txt

17 20-21

