#p uvsxc/6-31g* int=ultrafine opt=tight freq test

Gaussian Test Job 470 (Part 1):
Methyloxirane VSXC forces

1,2
 O,0,-0.80799712,-0.7779785196,-0.2730479467
 C,0,-1.0453500036,0.6399588699,-0.0485220039
 C,0,0.166561779,0.0192605278,0.5291578097
 C,0,1.5073372095,0.0514505924,-0.1577200438
 H,0,-1.9232084476,0.805774125,0.5880795949
 H,0,-1.0462556872,1.1891804703,-0.996743207
 H,0,0.1206465888,-0.2855386086,1.5796422754
 H,0,1.3875211661,0.2787893757,-1.2228223711
 H,0,2.0662415524,-0.8816864379,-0.0296098444
 H,0,2.0877378784,0.853289291,0.3283425536

