#p opt freq b3lyp/6-311+g(2d,p) scrf(smd,solvent=chloroform) geom=connectivity int=(ultrafine,acc2e=12) test

Gaussian Test Job 1112:
Acetic Acid in CHCl3, SMD, had bad freqs with old SMD

0 1
 C                 -0.08857879    0.12689103    0.00000000
 O                 -0.62172704    1.20626440    0.00000000
 O                 -0.79640759   -1.03149748    0.00000000
 H                 -1.73495142   -0.78582182    0.00000000
 C                  1.39215704   -0.12787100    0.00000000
 H                  1.66703747   -0.71337923    0.87935717
 H                  1.66703747   -0.71337923   -0.87935717
 H                  1.92446969    0.81936763    0.00000000

 1 2 2.0 3 1.0 5 1.0
 2
 3 4 1.0
 4
 5 6 1.0 7 1.0 8 1.0
 6
 7
 8

