#p hf/3-21g sparse test force geom=nocrowd

  Title Card Required

 0  1
 O                  9.475000    0.000000  -11.500000
 H                  9.475000    0.000000  -10.540000
 H                 10.379936    0.000000  -11.820455
 O                 11.400000    0.000000  -10.100000
 H                 11.400000    0.000000   -9.140000
 H                 12.304936    0.000000  -10.420455
 O                 10.350000    0.000000   -8.525000
 H                 10.350000    0.000000   -7.565000
 H                 11.254936    0.000000   -8.845454
 O                  6.384143   -0.914261   -8.517043
 H                  6.384143   -0.914261   -7.557043
 H                  7.289079   -0.914261   -8.837498
 O                  9.148454   -0.405569   -8.923800
 H                  9.148454   -0.405569   -7.963800
 H                 10.053390   -0.405569   -9.244255
 O                  8.567991   -1.032794   -5.756738
 H                  8.567991   -1.032794   -4.796738
 H                  9.472927   -1.032794   -6.077192
 O                  7.404161    0.065615  -13.426419
 H                  7.404161    0.065615  -12.466419
 H                  8.309097    0.065615  -13.746873
 O                 10.830577    1.110559  -13.389079
 H                 10.830577    1.110559  -12.429079
 H                 11.735513    1.110559  -13.709533
 O                  5.380133   -0.620085  -10.922675
 H                  5.380133   -0.620085   -9.962675
 H                  6.285069   -0.620085  -11.243130
 O                  6.701881   -1.914574   -5.393850
 H                  6.701881   -1.914574   -4.433850
 H                  7.606816   -1.914574   -5.714304
 O                 12.347566   -0.774470   -5.614977
 H                 12.347566   -0.774470   -4.654977
 H                 13.252502   -0.774470   -5.935431
 O                 11.532614   -0.552673   -6.963043
 H                 11.532614   -0.552673   -6.003043
 H                 12.437550   -0.552673   -7.283498
 O                 10.077285   -1.398060   -4.934383
 H                 10.077285   -1.398060   -3.974383
 H                 10.982221   -1.398060   -5.254837
 O                  5.587021    0.570868  -15.034178
 H                  5.587021    0.570868  -14.074178
 H                  6.491957    0.570868  -15.354632
 O                  7.917180    1.064368  -15.207212
 H                  7.917180    1.064368  -14.247212
 H                  8.822116    1.064368  -15.527667
 O                 10.909277    1.595482  -14.813354
 H                 10.909277    1.595482  -13.853354
 H                 11.814212    1.595482  -15.133809
 O                 13.367874    1.258985  -11.612543
 H                 13.367874    1.258985  -10.652543
 H                 14.272810    1.258985  -11.932998
 O                 13.372132    0.563512   -9.132740
 H                 13.372132    0.563512   -8.172740
 H                 14.277068    0.563512   -9.453194
 O                  4.295217   -1.779188   -8.184332
 H                  4.295217   -1.779188   -7.224332
 H                  5.200152   -1.779188   -8.504786
 O                  2.254332   -0.744604  -13.536031
 H                  2.254332   -0.744604  -12.576031
 H                  3.159268   -0.744604  -13.856485
 O                  2.365229   -1.855932   -9.487169
 H                  2.365229   -1.855932   -8.527169
 H                  3.270165   -1.855932   -9.807624
 O                  2.294730   -3.189177   -4.795289
 H                  2.294730   -3.189177   -3.835289
 H                  3.199666   -3.189177   -5.115744
 O                  5.554665   -2.655059   -4.043179
 H                  5.554665   -2.655059   -3.083179
 H                  6.459600   -2.655059   -4.363634
 O                  4.112071    0.590885  -16.786939
 H                  4.112071    0.590885  -15.826939
 H                  5.017007    0.590885  -17.107393
 O                  7.060295    1.624661  -18.069234
 H                  7.060295    1.624661  -17.109234
 H                  7.965231    1.624661  -18.389689
 O                 18.223216   -0.484846  -12.627856
 H                 18.223216   -0.484846  -11.667856
 H                 19.128152   -0.484846  -12.948310
 O                 19.091886   -0.790018   -9.688479
 H                 19.091886   -0.790018   -8.728479
 H                 19.996822   -0.790018  -10.008933
 O                 18.062125   -1.056948   -6.430846
 H                 18.062125   -1.056948   -5.470846
 H                 18.967061   -1.056948   -6.751301
 O                 16.465472   -0.859178   -7.919854
 H                 16.465472   -0.859178   -6.959854
 H                 17.370408   -0.859178   -8.240308
 O                 15.563815   -1.415323   -1.623083
 H                 15.563815   -1.415323   -0.663083
 H                 16.468751   -1.415323   -1.943537
 O                 14.832548   -1.121638   -4.468804
 H                 14.832548   -1.121638   -3.508804
 H                 15.737484   -1.121638   -4.789259
 O                 17.572829   -1.330705   -3.274843
 H                 17.572829   -1.330705   -2.314843
 H                 18.477765   -1.330705   -3.595298
 O                 12.206933   -1.291663   -1.626212
 H                 12.206933   -1.291663   -0.666212
 H                 13.111869   -1.291663   -1.946667
 O                 14.356472   -1.624126    1.111352
 H                 14.356472   -1.624126    2.071352
 H                 15.261408   -1.624126    0.790898
 O                  9.105695   -1.326503   -0.046558
 H                  9.105695   -1.326503    0.913442
 H                 10.010631   -1.326503   -0.367012
 O                 19.591955   -0.008010  -18.136370
 H                 19.591955   -0.008010  -17.176370
 H                 20.496891   -0.008010  -18.456825
 O                 14.979590    0.527500  -22.080164
 H                 14.979590    0.527500  -21.120164
 H                 15.884526    0.527500  -22.400619
 O                 11.505081    0.692145  -22.498938
 H                 11.505081    0.692145  -21.538938
 H                 12.410017    0.692145  -22.819392
 O                 14.221785    0.215144  -18.436157
 H                 14.221785    0.215144  -17.476157
 H                 15.126720    0.215144  -18.756612
 O                 15.616443   -0.092545  -15.675587
 H                 15.616443   -0.092545  -14.715587
 H                 16.521379   -0.092545  -15.996041
 O                 11.636792    0.323344  -18.585006
 H                 11.636792    0.323344  -17.625006
 H                 12.541727    0.323344  -18.905460
 O                  7.587263    0.896925  -23.152142
 H                  7.587263    0.896925  -22.192142
 H                  8.492198    0.896925  -23.472597
 O                  3.886307    0.782514  -20.504695
 H                  3.886307    0.782514  -19.544695
 H                  4.791243    0.782514  -20.825149
 O                 -1.978537   -0.052369   -9.333367
 H                 -1.978537   -0.052369   -8.373367
 H                 -1.073601   -0.052369   -9.653822
 O                  0.415059    0.545406  -16.627439
 H                  0.415059    0.545406  -15.667439
 H                  1.319995    0.545406  -16.947894
 O                 -3.007731    0.321589  -12.918529
 H                 -3.007731    0.321589  -11.958529
 H                 -2.102796    0.321589  -13.238983
 O                 -0.053781   -0.863848   -1.381481
 H                 -0.053781   -0.863848   -0.421481
 H                  0.851155   -0.863848   -1.701935
 O                  3.273431   -1.188228    0.815682
 H                  3.273431   -1.188228    1.775682
 H                  4.178367   -1.188228    0.495227
 O                 -4.436447   -0.451275   -4.095489
 H                 -4.436447   -0.451275   -3.135489
 H                 -3.531512   -0.451275   -4.415944
 O                 -6.049092   -0.045095   -7.809387
 H                 -6.049092   -0.045095   -6.849387
 H                 -5.144157   -0.045095   -8.129842

 1  2 1.0  3 1.0
 2
 3
 4  5 1.0  6 1.0
 5
 6
 7  8 1.0  9 1.0
 8
 9
 10  11 1.0  12 1.0
 11
 12
 13  14 1.0  15 1.0
 14
 15
 16  17 1.0  18 1.0
 17
 18
 19  20 1.0  21 1.0
 20
 21
 22  23 1.0  24 1.0
 23
 24
 25  26 1.0  27 1.0
 26
 27
 28  29 1.0  30 1.0
 29
 30
 31  32 1.0  33 1.0
 32
 33
 34  35 1.0  36 1.0
 35
 36
 37  38 1.0  39 1.0
 38
 39
 40  41 1.0  42 1.0
 41
 42
 43  44 1.0  45 1.0
 44
 45
 46  47 1.0  48 1.0
 47
 48
 49  50 1.0  51 1.0
 50
 51
 52  53 1.0  54 1.0
 53
 54
 55  56 1.0  57 1.0
 56
 57
 58  59 1.0  60 1.0
 59
 60
 61  62 1.0  63 1.0
 62
 63
 64  65 1.0  66 1.0
 65
 66
 67  68 1.0  69 1.0
 68
 69
 70  71 1.0  72 1.0
 71
 72
 73  74 1.0  75 1.0
 74
 75
 76  77 1.0  78 1.0
 77
 78
 79  80 1.0  81 1.0
 80
 81
 82  83 1.0  84 1.0
 83
 84
 85  86 1.0  87 1.0
 86
 87
 88  89 1.0  90 1.0
 89
 90
 91  92 1.0  93 1.0
 92
 93
 94  95 1.0  96 1.0
 95
 96
 97  98 1.0  99 1.0
 98
 99
 100  101 1.0  102 1.0
 101
 102
 103  104 1.0  105 1.0
 104
 105
 106  107 1.0  108 1.0
 107
 108
 109  110 1.0  111 1.0
 110
 111
 112  113 1.0  114 1.0
 113
 114
 115  116 1.0  117 1.0
 116
 117
 118  119 1.0  120 1.0
 119
 120
 121  122 1.0  123 1.0
 122
 123
 124  125 1.0  126 1.0
 125
 126
 127  128 1.0  129 1.0
 128
 129
 130  131 1.0  132 1.0
 131
 132
 133  134 1.0  135 1.0
 134
 135
 136  137 1.0  138 1.0
 137
 138
 139  140 1.0  141 1.0
 140
 141
 142  143 1.0  144 1.0
 143
 144
 145  146 1.0  147 1.0
 146
 147
 148  149 1.0  150 1.0
 149
 150
