%chk=test0319
#p rcis=(singlet,root=2)/d95(df,p) test freq
extrabasis int=nobasistrans

Gaussian Test Job 319 (Part 1):
hscl CIS frequencies

0,1
S
H,1,SH
CL,1,SCL,2,HSCL

SH=1.33805
SCL=2.07825
HSCL=93.96797

  s 0
 S    5 1.00
  0.3571000000D+05  0.2565000000D-02
  0.5397000000D+04  0.1940500000D-01
  0.1250000000D+04  0.9559500000D-01
  0.3599000000D+03  0.3457930000D+00
  0.1192000000D+03  0.6357940000D+00
 S    3 1.00
  0.1192000000D+03  0.1300960000D+00
  0.4398000000D+02  0.6513010000D+00
  0.1763000000D+02  0.2719550000D+00
 S    1 1.00
  0.5420000000D+01  0.1000000000D+01
 S    1 1.00
  0.2074000000D+01  0.1000000000D+01
 S    1 1.00
  0.4246000000D+00  0.1000000000D+01
 S    1 1.00
  0.1519000000D+00  0.1000000000D+01
 P    4 1.00
  0.2129000000D+03  0.1409100000D-01
  0.4960000000D+02  0.9668500000D-01
  0.1552000000D+02  0.3238740000D+00
  0.5476000000D+01  0.6917560000D+00
 P    2 1.00
  0.5476000000D+01 -0.6267370000D+00
  0.2044000000D+01  0.1377051000D+01
 P    1 1.00
  0.5218000000D+00  0.1000000000D+01
 P    1 1.00
  0.1506000000D+00  0.1000000000D+01
 D    1 1.00
  0.5320000000D+00  0.1000000000D+01
 F    1 1.00
  0.5500000000D+00  0.1000000000D+01
 ****
  h 0
 S    3 1.00
  0.1924060000D+02  0.3282800000D-01
  0.2899200000D+01  0.2312080000D+00
  0.6534000000D+00  0.8172380000D+00
 S    1 1.00
  0.1776000000D+00  0.1000000000D+01
 P    1 1.00
  0.1000000000D+01  0.1000000000D+01
 ****

--Link1--
%chk=test0319
#p rcis=(singlet,root=2,direct)/d95(df,p) test freq
guess=read

Gaussian Test Job 319 (Part 2):
hscl CIS frequencies

0,1
S
H,1,SH
CL,1,SCL,2,HSCL

SH=1.33805
SCL=2.07825
HSCL=93.96797

--Link1--
%chk=test0319
#p rcis=(triplet,root=3,nstate=5,readwindow)/d95(df,p) test freq
guess=read

Gaussian Test Job 319 (Part 3):
hscl cis frequencies

0,1
S
H,1,SH
CL,1,SCL,2,HSCL

SH=1.33805
SCL=2.07825
HSCL=93.96797

10,-7

--Link1--
%chk=test0319
%nosave
#p rcis=(triplet,root=3,nstate=5,readwindow,direct)/d95(df,p) test freq
guess=read extrabasis int=nobasistrans

Gaussian Test Job 319 (Part 4):
hscl cis frequencies

0,1
S
H,1,SH
CL,1,SCL,2,HSCL

SH=1.33805
SCL=2.07825
HSCL=93.96797

  s 0
 S    5 1.00
  0.3571000000D+05  0.2565000000D-02
  0.5397000000D+04  0.1940500000D-01
  0.1250000000D+04  0.9559500000D-01
  0.3599000000D+03  0.3457930000D+00
  0.1192000000D+03  0.6357940000D+00
 S    3 1.00
  0.1192000000D+03  0.1300960000D+00
  0.4398000000D+02  0.6513010000D+00
  0.1763000000D+02  0.2719550000D+00
 S    1 1.00
  0.5420000000D+01  0.1000000000D+01
 S    1 1.00
  0.2074000000D+01  0.1000000000D+01
 S    1 1.00
  0.4246000000D+00  0.1000000000D+01
 S    1 1.00
  0.1519000000D+00  0.1000000000D+01
 P    4 1.00
  0.2129000000D+03  0.1409100000D-01
  0.4960000000D+02  0.9668500000D-01
  0.1552000000D+02  0.3238740000D+00
  0.5476000000D+01  0.6917560000D+00
 P    2 1.00
  0.5476000000D+01 -0.6267370000D+00
  0.2044000000D+01  0.1377051000D+01
 P    1 1.00
  0.5218000000D+00  0.1000000000D+01
 P    1 1.00
  0.1506000000D+00  0.1000000000D+01
 D    1 1.00
  0.5320000000D+00  0.1000000000D+01
 F    1 1.00
  0.5500000000D+00  0.1000000000D+01
 ****
  h 0
 S    3 1.00
  0.1924060000D+02  0.3282800000D-01
  0.2899200000D+01  0.2312080000D+00
  0.6534000000D+00  0.8172380000D+00
 S    1 1.00
  0.1776000000D+00  0.1000000000D+01
 P    1 1.00
  0.1000000000D+01  0.1000000000D+01
 ****

10,-7

