#p opt=tight hf/6-311g** int=readb extralinks=l112 density=current

Gaussian Test Job 935:
Formamide hf/6-311G**//hf/6-311G** SCVS

0 1
 C                 -0.15457920    0.41470365    0.00000000
 O                 -1.19796161   -0.26101347    0.00000000
 N                  1.08304695   -0.16570783    0.00000000
 H                 -0.15135510    1.52911778    0.00000000
 H                  1.17773711   -1.15080964    0.00000000
 H                  1.90345745    0.38153249    0.00000000

