#p uff=qeq test

Gaussian Test Job 1115 (Part 1):
CF3CHO qeq charges, default parameters

0,1
  F-F_--0.408921                   -1.344313405777      0.383552434882      0.000000000000
  F-F_--0.459728                    0.532519848774      1.015478856413      1.142892069126
  F-F_--0.459728                    0.532519848774      1.015478856413     -1.142892069126
  C-C_2-0.422827                    0.532519848774     -1.059560065417      0.000000000000
  H-H_-0.145926                     1.610596074556     -1.278081577867      0.000000000000
  O-O_R--0.319299                  -0.328178589526     -2.033828097485      0.000000000000
  C-C_3-1.078921                    0.055529487180      0.362579236813      0.000000000000

--Link1--
#p uff=qeq test

Gaussian Test Job 1115 (Part 2):
CF3CHO qeq charges, atomic parameters read

0,1
  F-F_--0.408921                   -1.344313405777      0.383552434882      0.000000000000
  F-F_--0.459728                    0.532519848774      1.015478856413      1.142892069126
  F-F_--0.459728                    0.532519848774      1.015478856413     -1.142892069126
  C-C_2-0.422827(qele=0.1,qhard=0.6)                    0.532519848774     -1.059560065417      0.000000000000
  H-H_-0.145926                     1.610596074556     -1.278081577867      0.000000000000
  O-O_R--0.319299(qele=0.606,qhard=0.368)                  -0.328178589526     -2.033828097485      0.000000000000
  C-C_3-1.078921(qele=0.15,qhard=0.9)                    0.055529487180      0.362579236813      0.000000000000


--Link1--
%chk=test1115
#p uff=qeq test iop(1/174=1)

Gaussian Test Job 1115 (Part 2):
CF3CHO qeq charges, atomic and elemental parameters rad

0,1
  F-F_--0.408921                   -1.344313405777      0.383552434882      0.000000000000
  F-F_--0.459728                    0.532519848774      1.015478856413      1.142892069126
  F-F_--0.459728                    0.532519848774      1.015478856413     -1.142892069126
  C-C_2-0.422827(qele=0.1,qhard=0.6)                    0.532519848774     -1.059560065417      0.000000000000
  H-H_-0.145926                     1.610596074556     -1.278081577867      0.000000000000
  O-O_R--0.319299(qele=0.606,qhard=0.368)                  -0.328178589526     -2.033828097485      0.000000000000
  C-C_3-1.078921                    0.055529487180      0.362579236813      0.000000000000

C(qele=0.15,qhard=0.9)

--Link1--
%chk=test1115
%nosave
#p uff=qeq test geom=allcheck

