#p ub3lyp/6-31g* 5d units=au freq test

Gaussian Test Job 368 (Part 1):
Benzene using regular integrals

0,5
c   2.68000000000000       .00000000000000       .00000000000000              
c   1.34000000000000      2.32094808214230       .00000000000000              
c  -1.34000000000000      2.32094808214230       .00000000000000              
c  -2.68000000000000       .00000000000000       .00000000000000              
c  -1.34000000000000     -2.32094808214230       .00000000000000              
c   1.34000000000000     -2.32094808214230       .00000000000000              
h   4.72000000000000       .00000000000000       .00000000000000              
h   2.36000000000000      4.08763990586255       .00000000000000              
h  -2.36000000000000      4.08763990586255       .00000000000000              
h  -4.72000000000000       .00000000000000       .00000000000000              
h  -2.36000000000000     -4.08763990586255       .00000000000000              
h   2.36000000000000     -4.08763990586255       .00000000000000              

--Link1--
#p ub3lyp/6-31g* 5d units=au freq test fmm=(levels=5)

Gaussian Test Job 368 (Part 2):
Benzene using FMM full NFx

0,5
c   2.68000000000000       .00000000000000       .00000000000000              
c   1.34000000000000      2.32094808214230       .00000000000000              
c  -1.34000000000000      2.32094808214230       .00000000000000              
c  -2.68000000000000       .00000000000000       .00000000000000              
c  -1.34000000000000     -2.32094808214230       .00000000000000              
c   1.34000000000000     -2.32094808214230       .00000000000000              
h   4.72000000000000       .00000000000000       .00000000000000              
h   2.36000000000000      4.08763990586255       .00000000000000              
h  -2.36000000000000      4.08763990586255       .00000000000000              
h  -4.72000000000000       .00000000000000       .00000000000000              
h  -2.36000000000000     -4.08763990586255       .00000000000000              
h   2.36000000000000     -4.08763990586255       .00000000000000              

--Link1--
#p ub3lyp/6-31g* 5d units=au freq test fmm

Gaussian Test Job 368 (Part 3):
Benzene using FMM, NFx=1

0,5
c   2.68000000000000       .00000000000000       .00000000000000              
c   1.34000000000000      2.32094808214230       .00000000000000              
c  -1.34000000000000      2.32094808214230       .00000000000000              
c  -2.68000000000000       .00000000000000       .00000000000000              
c  -1.34000000000000     -2.32094808214230       .00000000000000              
c   1.34000000000000     -2.32094808214230       .00000000000000              
h   4.72000000000000       .00000000000000       .00000000000000              
h   2.36000000000000      4.08763990586255       .00000000000000              
h  -2.36000000000000      4.08763990586255       .00000000000000              
h  -4.72000000000000       .00000000000000       .00000000000000              
h  -2.36000000000000     -4.08763990586255       .00000000000000              
h   2.36000000000000     -4.08763990586255       .00000000000000              

