#p CCSD=FC1 Opt Gen test

Gaussian Test Job 823:
Geometry optimisation of NaCl anion at CCSD with pc-0 with frozen inner core only

-1 2
Na
Cl 1 rnacl

rnacl 2.35622908

Cl 0
S    5 1.00
   0.11759E+05    0.47248E-02
   0.17686E+04    0.36546E-01
   0.40219E+03    0.16597E+00
   0.11254E+03    0.52530E+00
   0.35039E+02    0.61955E+00
S    5 1.00
   0.17686E+04   -0.29053E-03
   0.40219E+03   -0.10664E-02
   0.11254E+03   -0.23406E-01
   0.35039E+02   -0.39915E-01
   0.69956E+01    0.17937E-01
S    5 1.00
   0.40219E+03    0.69197E-03
   0.11254E+03    0.59760E-02
   0.35039E+02    0.27394E-01
   0.69956E+01   -0.15516E+00
   0.26455E+01   -0.25028E+00
S    1 1.00
   0.34157E+00    0.10000E+01
P    4 1.00
   0.15066E+03    0.28299E-01
   0.34933E+02    0.17336E+00
   0.10492E+02    0.46812E+00
   0.33726E+01    0.48321E+00
P    4 1.00
   0.34933E+02    0.13598E-03
   0.10492E+02   -0.16611E-01
   0.33726E+01    0.22351E-01
   0.75989E+00    0.51192E+00
P    1 1.00
   0.20289E+00    0.10000E+01
****
Na 0
S 5 1.00
0.45535E+04 0.51583E-02
0.68509E+03 0.38600E-01
0.15573E+03 0.17385E+00
0.43371E+02 0.45646E+00
0.13339E+02 0.46291E+00
S 5 1.00
0.68509E+03 -0.31854E-03
0.15573E+03 -0.22648E-02
0.43371E+02 -0.33923E-01
0.13339E+02 -0.76309E-01
0.23106E+01 0.33727E+00
S 5 1.00
0.15573E+03 -0.79131E-04
0.43371E+02 -0.69906E-03
0.13339E+02 -0.32083E-02
0.23106E+01 0.30056E-01
0.70669E+00 0.11224E+00
S 1 1.00
0.45942E-01 0.10000E+01
P 4 1.00
0.37793E+02 0.46495E-01
0.84134E+01 0.24311E+00
0.23210E+01 0.51738E+00
0.60658E+00 0.42598E+00
P 1 1.00
0.95000E-01 0.10000E+01
****


