%chk=test0087
#p rhf/gen 6d name=frisch units=au gfoldprint test scf=conventional

Gaussian Test Job 87
P(Cp)2+ C2v D95 + d(0.5) on P

1,1
P  0.0000000  0.0000000 -0.0462730
C  2.7131881  0.0000000  2.0909305
C -2.7131881  0.0000000  2.0909305
C  3.5927950  2.2096349  0.6001706
C -3.5927950  2.2096349  0.6001706
C  3.5927950 -2.2096349  0.6001706
C -3.5927950 -2.2096349  0.6001706
C  4.8338266  1.3423255 -1.5121070
C -4.8338266  1.3423255 -1.5121070
C  4.8338266 -1.3423255 -1.5121070
C -4.8338266 -1.3423255 -1.5121070
H  2.4887589  0.0000000  4.1253042
H -2.4887589  0.0000000  4.1253042
H  3.2902197  4.1568005  1.1541487
H -3.2902197  4.1568005  1.1541487
H  3.2902197 -4.1568005  1.1541487
H -3.2902197 -4.1568005  1.1541487
H  5.5909963  2.5131831 -3.0113358
H -5.5909963  2.5131831 -3.0113358
H  5.5909963 -2.5131831 -3.0113358
H -5.5909963 -2.5131831 -3.0113358

P 0
             S 5 1.00
    0.3063000000D+05    0.2618999597D-02
    0.4684000000D+04    0.1947899700D-01
    0.1094000000D+04    0.9520698536D-01
    0.3153000000D+03    0.3457419468D+00
    0.1041000000D+03    0.6362879022D+00
             S 3 1.00
    0.1041000000D+03    0.1307060135D+00
    0.3842000000D+02    0.6502740670D+00
    0.1545000000D+02    0.2723080281D+00
             S 1 1.00
    0.4656000000D+01    0.1000000000D+01
             S 1 1.00
    0.1759000000D+01    0.1000000000D+01
             S 1 1.00
    0.3409000000D+00    0.1000000000D+01
             S 1 1.00
    0.1238000000D+00    0.1000000000D+01
             P 4 1.00
    0.1877000000D+03                        0.1315799992D-01
    0.4363000000D+02                        0.9049399944D-01
    0.1360000000D+02                        0.3050539981D+00
    0.4766000000D+01                        0.7135789956D+00
             P 2 1.00
    0.4766000000D+01                       -0.7925729704D+00
    0.1743000000D+01                        0.1429986947D+01
             P 1 1.00
    0.4192000000D+00                        0.1000000000D+01
             P 1 1.00
    0.1245000000D+00                        0.1000000000D+01
             D 1 1.00
    0.5000000000D+00                 1.0
****
 C 0
             S 6 1.00
    0.4232610000D+04    0.2029000503D-02
    0.6348820000D+03    0.1553500385D-01
    0.1460970000D+03    0.7541101870D-01
    0.4249740000D+02    0.2571210638D+00
    0.1418920000D+02    0.5965551480D+00
    0.1966600000D+01    0.2425170602D+00
             S 1 1.00
    0.5147700000D+01    0.1000000000D+01
             S 1 1.00
    0.4962000000D+00    0.1000000000D+01
             S 1 1.00
    0.1533000000D+00    0.1000000000D+01
             P 4 1.00
    0.1815570000D+02                        0.1853400257D-01
    0.3986400000D+01                        0.1154420160D+00
    0.1142900000D+01                        0.3862060535D+00
    0.3594000000D+00                        0.6400890887D+00
             P 1 1.00
    0.1146000000D+00                        0.1000000000D+01
****
H 0
             S 3 1.00
    0.1924060000D+02    0.3282807697D-01
    0.2899200000D+01    0.2312085421D+00
    0.6534000000D+00    0.8172399161D+00
             S 1 1.00
    0.1776000000D+00    0.1000000000D+01
****

--Link1--
%chk=test0087
%nosave
#p rhf/chkbas 6d geom=check guess=read test scf=(direct,tight)

Gaussian Test Job 87
P(Cp)2+ C2v D95 + d(0.5) on P

1,1

