%chk=test0927
#p pm6 cis test force

Gaussian Test Job 927 (Part 1):
(H2PCH2CH2PH2)PdCl2(CH3)2 PM6 CIS forces

-1,2
         46        0.000000    0.000000   -0.596753
         15        1.603031    0.101455    1.229408
         15       -1.603031   -0.101455    1.229408
         17        0.000000    2.270951   -0.621399
         17        0.000000   -2.270951   -0.621399
          6        1.417417    0.000000   -2.175844
          6       -1.417417    0.000000   -2.175844
          6        0.657473    0.390309    2.827136
          6       -0.657473   -0.390309    2.827136
          1        2.421288   -1.009087    1.603124
          1        2.613106    1.100809    1.341859
          1        1.272465    0.136075    3.704177
          1        0.444504    1.470543    2.873229
          1       -1.272465   -0.136075    3.704177
          1       -0.444504   -1.470543    2.873229
          1       -2.613106   -1.100809    1.341859
          1       -2.421288    1.009087    1.603124
          1        1.549974    0.994520   -2.550432
          1        2.363925   -0.425290   -1.780155
          1        1.043843   -0.687687   -2.970593
          1       -1.549974   -0.994520   -2.550432
          1       -2.363925    0.425290   -1.780155
          1       -1.043843    0.687687   -2.970593

--Link1--
%chk=test0927
%nosave
#p pm6 cis=noincore test force geom=check guess=read

Gaussian Test Job 927 (Part 2):
(H2PCH2CH2PH2)PdCl2(CH3)2 PM6 CIS forces, no incore

-1,2

