#p test freq=hindered

Gaussian Test Job 440:
hindered rotor test
butane : multiple and compounded rotors

0,1
          1          -1.389988    2.445362     .000000
          6          -1.424359    1.359899     .000000
          6            .000000     .772039     .000000
          6           -.000097    -.772558     .000000
          1          -1.973584    1.037230     .879572
          1          -1.973584    1.037230    -.879572
          1            .537062    1.131242     .875984
          1            .537062    1.131242    -.875984
          6           1.424534   -1.359711     .000000
          1           -.537709   -1.130890    -.875988
          1           -.537709   -1.130890     .875988
          1           1.973548   -1.036669     .879572
          1           1.973548   -1.036669    -.879572
          1           1.390887   -2.445200     .000000


