%mem=32mw
#P HF/6-311G** SCF=Tight AIM symm=loose test

Gaussian Test Job 364:
C20H20 HF/6-311G** ATOMS IN MOLECULES

0  1
C          -1.065080    0.773826    1.723336
C          -1.065080   -0.773826    1.723336
C           0.406825   -1.252077    1.723336
C          -1.723336    1.252077    0.406825
C           0.406825    1.252077    1.723336
C           1.316512    0.000000    1.723336
C           0.658256    2.025903    0.406825
C           2.130161    0.000000    0.406825
C           1.723336    1.252077   -0.406825
C          -0.658256    2.025903   -0.406825
C           1.723336   -1.252077   -0.406825
C           1.065080    0.773826   -1.723336
C          -0.406825    1.252077   -1.723336
C          -1.316512    0.000000   -1.723336
C          -0.406825   -1.252077   -1.723336
C           1.065080   -0.773826   -1.723336
C           0.658256   -2.025903    0.406825
C          -0.658256   -2.025903   -0.406825
C          -1.723336   -1.252077    0.406825
C          -2.130161    0.000000   -0.406825
H          -1.597522    1.160667    2.584844
H          -1.597522   -1.160667    2.584844
H           0.610199   -1.877999    2.584844
H          -2.584844    1.877999    0.610199
H           0.610199    1.877999    2.584844
H           1.974645    0.000000    2.584844
H           0.987323    3.038667    0.610199
H           3.195043    0.000000    0.610199
H           2.584844    1.877999   -0.610199
H          -0.987323    3.038667   -0.610199
H           2.584844   -1.877999   -0.610199
H           1.597522    1.160667   -2.584844
H          -0.610199    1.877999   -2.584844
H          -1.974645    0.000000   -2.584844
H          -0.610199   -1.877999   -2.584844
H           1.597522   -1.160667   -2.584844
H           0.987323   -3.038667    0.610199
H          -0.987323   -3.038667   -0.610199
H          -2.584844   -1.877999    0.610199
H          -3.195043    0.000000   -0.610199

