#p pbepbe/3-21g sparse test force

 Title Card Required

 0  1
 N
 H                  1              B1
 C                  1              B2    2              A1
 C                  3              B3    1              A2    2              D1
 H                  3              B4    1              A3    2              D2
 H                  3              B5    1              A4    2              D3
 O                  4              B6    3              A5    1              D4
 N                  4              B7    3              A6    1              D5
 H                  8              B8    4              A7    3              D6
 C                  8              B9    4              A8    3              D7
 C                 10             B10    8              A9    4              D8
 H                 10             B11    8             A10    4              D9
 H                 10             B12    8             A11    4             D10
 O                 11             B13   10             A12    8             D11
 N                 11             B14   10             A13    8             D12
 H                 15             B15   11             A14   10             D13
 C                 15             B16   11             A15   10             D14
 C                 17             B17   15             A16   11             D15
 H                 17             B18   15             A17   11             D16
 H                 17             B19   15             A18   11             D17
 O                 18             B20   17             A19   15             D18
 N                 18             B21   17             A20   15             D19
 H                 22             B22   18             A21   17             D20
 C                 22             B23   18             A22   17             D21
 C                 24             B24   22             A23   18             D22
 H                 24             B25   22             A24   18             D23
 H                 24             B26   22             A25   18             D24
 O                 25             B27   24             A26   22             D25
 N                 25             B28   24             A27   22             D26
 H                 29             B29   25             A28   24             D27
 C                 29             B30   25             A29   24             D28
 C                 31             B31   29             A30   25             D29
 H                 31             B32   29             A31   25             D30
 H                 31             B33   29             A32   25             D31
 O                 32             B34   31             A33   29             D32
 N                 32             B35   31             A34   29             D33
 H                 36             B36   32             A35   31             D34
 C                 36             B37   32             A36   31             D35
 C                 38             B38   36             A37   32             D36
 H                 38             B39   36             A38   32             D37
 H                 38             B40   36             A39   32             D38
 O                 39             B41   38             A40   36             D39
 N                 39             B42   38             A41   36             D40
 H                 43             B43   39             A42   38             D41
 C                 43             B44   39             A43   38             D42
 C                 45             B45   43             A44   39             D43
 H                 45             B46   43             A45   39             D44
 H                 45             B47   43             A46   39             D45
 O                 46             B48   45             A47   43             D46
 N                 46             B49   45             A48   43             D47
 H                 50             B50   46             A49   45             D48
 C                 50             B51   46             A50   45             D49
 C                 52             B52   50             A51   46             D50
 H                 52             B53   50             A52   46             D51
 H                 52             B54   50             A53   46             D52
 O                 53             B55   52             A54   50             D53
 N                  1             B56    2             A55    3             D54
 H                 57             B57    1             A56    2             D55
 C                 57             B58    1             A57    2             D56
 C                  1             B59    2             A58    3             D57
 H                 59             B60   57             A59    1             D58
 H                 59             B61   57             A60    1             D59
 O                 60             B62    1             A61    2             D60
 N                 57             B63    1             A62    2             D61
 H                 64             B64   57             A63    1             D62
 C                 64             B65   57             A64    1             D63
 C                 57             B66    1             A65    2             D64
 H                 66             B67   64             A66   57             D65
 H                 66             B68   64             A67   57             D66
 O                 67             B69   57             A68    1             D67
 H                 64             B70   57             A69    1             D68
 H                 53             B71   52             A70   50             D69

   B1             1.000000
   B2             1.449000
   B3             1.522000
   B4             1.090000
   B5             1.090000
   B6             1.258401
   B7             1.337700
   B8             1.000000
   B9             1.449000
   B10            1.522000
   B11            1.090000
   B12            1.090000
   B13            1.258401
   B14            1.337700
   B15            1.000000
   B16            1.449000
   B17            1.522000
   B18            1.090000
   B19            1.090000
   B20            1.258401
   B21            1.337700
   B22            1.000000
   B23            1.449000
   B24            1.522000
   B25            1.090000
   B26            1.090000
   B27            1.258401
   B28            1.337700
   B29            1.000000
   B30            1.449000
   B31            1.522000
   B32            1.090000
   B33            1.090000
   B34            1.258401
   B35            1.337700
   B36            1.000000
   B37            1.449000
   B38            1.522000
   B39            1.090000
   B40            1.090000
   B41            1.258401
   B42            1.337700
   B43            1.000000
   B44            1.449000
   B45            1.522000
   B46            1.090000
   B47            1.090000
   B48            1.258401
   B49            1.337700
   B50            1.000000
   B51            1.449000
   B52            1.522000
   B53            1.090000
   B54            1.090000
   B55            1.258401
   B56            3.688000
   B57            1.000000
   B58            1.449000
   B59            1.337700
   B60            1.090000
   B61            1.090000
   B62            1.258401
   B63            3.688000
   B64            1.000000
   B65            1.449000
   B66            1.337700
   B67            1.090000
   B68            1.090000
   B69            1.258401
   B70            1.000000
   B71            1.070000
   A1           119.999986
   A2           110.399986
   A3           109.499989
   A4           109.499989
   A5           120.000001
   A6           119.999999
   A7           120.000028
   A8           119.999985
   A9           110.399986
   A10          109.499989
   A11          109.499989
   A12          120.000001
   A13          119.999999
   A14          120.000028
   A15          119.999985
   A16          110.399986
   A17          109.499989
   A18          109.499989
   A19          120.000001
   A20          119.999999
   A21          120.000028
   A22          119.999985
   A23          110.399986
   A24          109.499989
   A25          109.499989
   A26          120.000001
   A27          119.999999
   A28          120.000028
   A29          119.999985
   A30          110.399986
   A31          109.499989
   A32          109.499989
   A33          120.000001
   A34          119.999999
   A35          120.000028
   A36          119.999985
   A37          110.399986
   A38          109.499989
   A39          109.499989
   A40          120.000001
   A41          119.999999
   A42          120.000028
   A43          119.999985
   A44          110.399986
   A45          109.499989
   A46          109.499989
   A47          120.000001
   A48          119.999999
   A49          120.000028
   A50          119.999985
   A51          110.399986
   A52          109.499989
   A53          109.499989
   A54          120.000001
   A55          103.029660
   A56           93.429604
   A57           26.570382
   A58          120.000028
   A59          109.499989
   A60          109.499989
   A61          119.999999
   A62          163.540736
   A63           93.429604
   A64           26.570382
   A65          146.570367
   A66          109.499989
   A67          109.499989
   A68          119.999999
   A69          146.570367
   A70          119.999999
   D1             0.000000
   D2           120.000017
   D3          -120.000017
   D4            -0.000000
   D5          -180.000000
   D6            -0.000000
   D7           180.000000
   D8          -180.000000
   D9           -59.999983
   D10           59.999983
   D11           -0.000000
   D12          180.000000
   D13            0.000000
   D14          180.000000
   D15         -180.000000
   D16          -59.999983
   D17           59.999983
   D18            0.000000
   D19          179.999999
   D20            0.000001
   D21         -180.000000
   D22         -180.000000
   D23          -59.999983
   D24           59.999983
   D25           -0.000000
   D26          180.000000
   D27            0.000000
   D28          180.000000
   D29         -179.999999
   D30          -59.999983
   D31           59.999983
   D32            0.000000
   D33         -179.999999
   D34            0.000000
   D35          180.000000
   D36         -180.000000
   D37          -59.999983
   D38           59.999983
   D39           -0.000000
   D40          180.000000
   D41           -0.000001
   D42         -179.999999
   D43          180.000000
   D44          -59.999983
   D45           59.999983
   D46            0.000000
   D47          180.000000
   D48            0.000000
   D49         -180.000000
   D50          180.000000
   D51          -59.999983
   D52           59.999983
   D53            0.000000
   D54          180.000000
   D55          180.000000
   D56            0.000000
   D57          180.000000
   D58          120.000017
   D59         -120.000017
   D60         -179.999999
   D61            0.000000
   D62           -0.000000
   D63          180.000000
   D64            0.000000
   D65          120.000017
   D66         -120.000017
   D67           -0.000000
   D68          180.000000
   D69         -180.000000


