#p test ucid/6-31g* density=curr

Gaussian Test Job 201 (Part 1)
ETHYL RADICAL cid/6-31g* densities

0 2
C1
C2 C1 CC
H1 C1 CH C2 T
H2 C1 CH C2 T H1 T 1
H3 C2 CH C1 T H1 180.
H4 C2 CH C1 T H3 120.
H5 C2 CH C1 T H3 240.

CC 1.54
CH 1.09
T 109.471221

--Link1--
#p test ucid/6-31g* density=curr force

Gaussian Test Job 201 (Part 2)
ETHYL RADICAL cid/6-31g* forces

0 2
C1
C2 C1 CC
H1 C1 CH C2 T
H2 C1 CH C2 T H1 T 1
H3 C2 CH C1 T H1 180.
H4 C2 CH C1 T H3 120.
H5 C2 CH C1 T H3 240.

CC 1.54
CH 1.09
T 109.471221

--Link1--
#p test ucisd/6-31g* density=curr

Gaussian Test Job 201 (Part 3)
ETHYL RADICAL cisd/6-31g* densities

0 2
C1
C2 C1 CC
H1 C1 CH C2 T
H2 C1 CH C2 T H1 T 1
H3 C2 CH C1 T H1 180.
H4 C2 CH C1 T H3 120.
H5 C2 CH C1 T H3 240.

CC 1.54
CH 1.09
T 109.471221

--Link1--
#p test ucisd/6-31g* density=curr force

Gaussian Test Job 201 (Part 4)
ETHYL RADICAL cisd/6-31g* forces

0 2
C1
C2 C1 CC
H1 C1 CH C2 T
H2 C1 CH C2 T H1 T 1
H3 C2 CH C1 T H1 180.
H4 C2 CH C1 T H3 120.
H5 C2 CH C1 T H3 240.

CC 1.54
CH 1.09
T 109.471221

--Link1--
#p test uccd/6-31g* density=curr

Gaussian Test Job 201 (Part 5)
ETHYL RADICAL ccd/6-31g* densities

0 2
C1
C2 C1 CC
H1 C1 CH C2 T
H2 C1 CH C2 T H1 T 1
H3 C2 CH C1 T H1 180.
H4 C2 CH C1 T H3 120.
H5 C2 CH C1 T H3 240.

CC 1.54
CH 1.09
T 109.471221

--Link1--
#p test uccd/6-31g* density=curr force

Gaussian Test Job 201 (Part 6)
ETHYL RADICAL ccd/6-31g* forces

0 2
C1
C2 C1 CC
H1 C1 CH C2 T
H2 C1 CH C2 T H1 T 1
H3 C2 CH C1 T H1 180.
H4 C2 CH C1 T H3 120.
H5 C2 CH C1 T H3 240.

CC 1.54
CH 1.09
T 109.471221

--Link1--
#p test uqcisd/6-31g* density=curr

Gaussian Test Job 201 (Part 7)
ETHYL RADICAL qcisd/6-31g* densities

0 2
C1
C2 C1 CC
H1 C1 CH C2 T
H2 C1 CH C2 T H1 T 1
H3 C2 CH C1 T H1 180.
H4 C2 CH C1 T H3 120.
H5 C2 CH C1 T H3 240.

CC 1.54
CH 1.09
T 109.471221

--Link1--
#p test uqcisd/6-31g* density=curr force

Gaussian Test Job 201 (Part 8)
ETHYL RADICAL qcisd/6-31g* forces

0 2
C1
C2 C1 CC
H1 C1 CH C2 T
H2 C1 CH C2 T H1 T 1
H3 C2 CH C1 T H1 180.
H4 C2 CH C1 T H3 120.
H5 C2 CH C1 T H3 240.

CC 1.54
CH 1.09
T 109.471221

