#p oniom(b3lyp:hf:amber)=scale=20 test opt iop(1/52=1212013)

Gaussian Test Job 789:
ONIOM with added centers test

  0  1
  C-CT--0.225         3.305952   -0.000092   -4.560885 L
  C-CT--0.225         2.259261   -0.000027   -3.486088 L
  H-HC-0.100          4.330215   -0.000076   -4.114924 L
  H-HC-0.100          3.207551   -0.905048   -5.208487 L
  H-HC-0.100          3.207573    0.904737   -5.208657 L
  H-HC-0.100          2.514529   -0.904980   -2.882783 L
  H-HC-0.100          2.514589    0.904919   -2.882802 L
  C-CT--0.225         0.739248    0.000044   -3.733393 L
  C-CT--0.225         0.370185    0.000111   -2.279246 L H-HC-0.100
  H-HC-0.100          0.330163   -0.904874   -4.245047 L
  H-HC-0.100          0.330229    0.904911   -4.245175 L
  H-HC-0.100          0.892841   -0.904886   -1.884418 L
  H-HC-0.100          0.893014    0.905013   -1.884434 L
  C-CT--0.225        -1.069837    0.000277   -1.733411 M
  C-CT--0.225        -0.662382    0.000291   -0.289552 M
  H-HC-0.100         -1.592589   -0.904608   -2.128292 M
  H-HC-0.100         -1.592452    0.905177   -2.128420 M
  H-HC-0.100         -0.052287   -0.904740   -0.051262 M
  H-HC-0.100         -0.052021    0.905159   -0.051335 M
  C-CT--0.225        -1.636560    0.000506    0.903166 M H-HC-0.100
  C-CT--0.225        -0.561763    0.000425    1.949857 H
  H-HC-0.100         -2.286781   -0.904330    0.822550 M
  H-HC-0.100         -2.286597    0.905455    0.822401 M
  H-HC-0.100         -1.007272    0.000616    2.974209 H
  H-HC-0.100          0.085674   -0.904650    1.851160 H
  H-HC-0.100          0.085998    0.905249    1.850994 H

1 15 18 0.7 0.2
1 15 15 0.6 0.3
2 2 8 0.4 0.4
1 14 14 0.2 0.1
1 14 15 0.6 0.3
1 8 8 0.1 0.3
2 1 0 0.1 0.1
2 0 2 0.1 0.1
1 2 8 0.3 0.3
2 2 8 0.7 0.3
2 8 8 0.2 0.1
1 9 0 0.5 0.5

