%chk=test0996
#p rhf/3-21g nmr pop=(ncs,nbo6read,savenlmo,full) test external="tgaunbo6.bat"

Gaussian Test Job 996 (Part 1):
Methylamine, using NBO6 external interface

0,1
C       0.745914       0.011106       0.000000
N      -0.721743      -0.071848       0.000000
H       1.042059       1.060105       0.000000
H       1.129298      -0.483355       0.892539
H       1.129298      -0.483355      -0.892539
H      -1.076988       0.386322      -0.827032
H      -1.076988       0.386322       0.827032

$nbo $end

--Link1--
%chk=test0996
%nosave
#p chkbas geom=allcheck guess=(read,only) density=check test

