# opt=AddGIC rhf/3-21g geom=connectivity test

Gaussian Test Job 1192:
3-buten-1-ol 2D scan using GICs

0 1
 C                 -1.05882200    0.44877500   -0.25513800
 C                  0.02836800   -0.38340300    0.42893700
 H                 -1.09499500    1.44279900    0.18028200
 H                 -0.83083400    0.54687900   -1.31086300
 C                  1.37136900    0.29576700    0.33926600
 H                 -0.26483500   -0.51673300    1.46422800
 H                  0.05585400   -1.35977100   -0.03742700
 C                  2.39492700   -0.15436100   -0.35463700
 H                  1.46568300    1.22001300    0.88422700
 H                  3.32890000    0.37310700   -0.39425500
 H                  2.34289100   -1.07391400   -0.90816600
 O                 -2.29799300   -0.25864200   -0.04432000
 H                 -3.03377400    0.19609100   -0.47403700

 1 2 1.0 3 1.0 4 1.0 12 1.0
 2 5 1.0 6 1.0 7 1.0
 3
 4
 5 8 2.0 9 1.0
 6
 7
 8 10 1.0 11 1.0
 9
 10
 11
 12 13 1.0
 13

D 2  1 12 13 S 4  30.0   ! Same as D(2,1,12,13) NSteps=4 StepSize=30.0
D 12 1 2  5  S 4 -30.0   ! Same as D(12,1,2,5) NSteps=4 StepSize=-30.0

