#p w1bd=nosaveamp geom=modela test

Gaussian Test Job 884:
CN radical W1BD

0,2
c n -h

--Link1--
#p w1bd geom=modela test

Gaussian Test Job 884:
CN radical W1BD

0,2
c n -h

--Link1--
#p w1bd=nosaveamp geom=modela test use=l916

Gaussian Test Job 884:
CN radical W1BD

0,2
c n -h

--Link1--
#p w1bd geom=modela test use=l916

Gaussian Test Job 884:
CN radical W1BD

0,2
c n -h

