#p oniom(b3lyp/6-31G(d):hf/3-21g*) test freq(vcd,roa) units=au 

Gaussian Test Job 1068 (Part 1)
ONIOM(QM:QM) C2v model system symmetry.

0 1
C       0.000000000000      0.000000000000     -3.966439554226 L
O       0.000000000000      0.000000000000     -6.344004884019 L
C       0.000000000000      2.543101615545     -2.566393379313 L H 11 0.562101936503
H      -1.593838458262      3.615297183100     -3.074983553731 L
H       1.593838458262      3.615297183100     -3.074983553731 L
C       0.000000000000     -2.543101615545     -2.566393379313 L H 14 0.562101936503
H      -1.593838458262     -3.615297183100     -3.074983553731 L
H       1.593838458262     -3.615297183100     -3.074983553731 L
C       0.000000000000      0.000000000000      2.419258488449 H
S       0.000000000000      0.000000000000      5.379136687430 H
C       0.000000000000      2.507479767870      0.949389862308 H H  3 0.565165513794
H       1.583295147090      3.593406727954      1.418228721730 H
H      -1.583295147090      3.593406727954      1.418228721730 H
C       0.000000000000     -2.507479767870      0.949389862308 H H  6 0.565165513794
H       1.583295147090     -3.593406727954      1.418228721730 H
H      -1.583295147090     -3.593406727954      1.418228721730 H

553nm

--Link1--
#p oniom(b3lyp/6-31G(d):hf/3-21g*) test freq(vcd,roa) units=au iop(1/52+=1000000)

Gaussian Test Job 1068 (Part 2)
ONIOM(QM:QM) C2v model system symmetry. Testing added centers.

0 1
C       0.000000000000      0.000000000000     -3.966439554226 L
O       0.000000000000      0.000000000000     -6.344004884019 L
C       0.000000000000      2.543101615545     -2.566393379313 L H 11 0.562101936503
H      -1.593838458262      3.615297183100     -3.074983553731 L
H       1.593838458262      3.615297183100     -3.074983553731 L
C       0.000000000000     -2.543101615545     -2.566393379313 L H 14 0.562101936503
H      -1.593838458262     -3.615297183100     -3.074983553731 L
H       1.593838458262     -3.615297183100     -3.074983553731 L
C       0.000000000000      0.000000000000      2.419258488449 H
S       0.000000000000      0.000000000000      5.379136687430 H
C       0.000000000000      2.507479767870      0.949389862308 H H  3 0.565165513794
H       1.583295147090      3.593406727954      1.418228721730 H
H      -1.583295147090      3.593406727954      1.418228721730 H
C       0.000000000000     -2.507479767870      0.949389862308 H H  6 0.565165513794
H       1.583295147090     -3.593406727954      1.418228721730 H
H      -1.583295147090     -3.593406727954      1.418228721730 H

553nm

--Link1--
#p oniom(b3lyp/6-31G(d):hf/3-21g*) test freq(vcd,roa) units=au

Gaussian Test Job 1068 (Part 3)
ONIOM(QM:QM) C2v model system symmetry. Nasty ordering of atoms.

0 1
S       0.000000000000      0.000000000000      5.379136687430 H
O       0.000000000000      0.000000000000     -6.344004884019 L
C       0.000000000000      0.000000000000     -3.966439554226 L
C       0.000000000000      0.000000000000      2.419258488449 H
C       0.000000000000      2.543101615545     -2.566393379313 L H  6 0.562101936503
C       0.000000000000      2.507479767870      0.949389862308 H H  5 0.565165513794
C       0.000000000000     -2.543101615545     -2.566393379313 L H  8 0.562101936503
C       0.000000000000     -2.507479767870      0.949389862308 H H  7 0.565165513794
H      -1.593838458262      3.615297183100     -3.074983553731 L
H       1.583295147090      3.593406727954      1.418228721730 H
H       1.593838458262      3.615297183100     -3.074983553731 L
H      -1.583295147090      3.593406727954      1.418228721730 H
H      -1.593838458262     -3.615297183100     -3.074983553731 L
H       1.583295147090     -3.593406727954      1.418228721730 H
H       1.593838458262     -3.615297183100     -3.074983553731 L
H      -1.583295147090     -3.593406727954      1.418228721730 H

553nm

--Link1--
#p oniom(b3lyp/6-31G(d):hf/3-21g*) test freq(vcd,roa) units=au iop(1/52+=1000000)

Gaussian Test Job 1068 (Part 4)
ONIOM(QM:QM) C2v model system symmetry. Nasty ordering of atoms and added centers.

0 1
S       0.000000000000      0.000000000000      5.379136687430 H
O       0.000000000000      0.000000000000     -6.344004884019 L
C       0.000000000000      0.000000000000     -3.966439554226 L
C       0.000000000000      0.000000000000      2.419258488449 H
C       0.000000000000      2.543101615545     -2.566393379313 L H  6 0.562101936503
C       0.000000000000      2.507479767870      0.949389862308 H H  5 0.565165513794
C       0.000000000000     -2.543101615545     -2.566393379313 L H  8 0.562101936503
C       0.000000000000     -2.507479767870      0.949389862308 H H  7 0.565165513794
H      -1.593838458262      3.615297183100     -3.074983553731 L
H       1.583295147090      3.593406727954      1.418228721730 H
H       1.593838458262      3.615297183100     -3.074983553731 L
H      -1.583295147090      3.593406727954      1.418228721730 H
H      -1.593838458262     -3.615297183100     -3.074983553731 L
H       1.583295147090     -3.593406727954      1.418228721730 H
H       1.593838458262     -3.615297183100     -3.074983553731 L
H      -1.583295147090     -3.593406727954      1.418228721730 H

553nm

