#p rhf/3-21g complex geom=(modela,print) force test

Gaussian Test Job 61:
Water standard model complex force test

0,1
o h h

--Link1--
#p rhf/3-21g complex geom=(modela,print) force test int=dsrys

Gaussian Test Job 61:
Water standard model complex force test

0,1
o h h

--Link1--
#p rhf/3-21g complex geom=(modela,print) force test int=(berny,dsrys)

Gaussian Test Job 61:
Water standard model complex force test

0,1
o h h

