%chk=test1079
#p cis(nstates=3,conver=6)/6-31G(d) eet(fragment=2) units=au test

Gaussian Test Job 1079 (Part 1)
EET C2v fragments symmetry.

0 1
C(fragment=1)       0.000000000000      0.000000000000     -3.966439554226 1
O(fragment=1)       0.000000000000      0.000000000000     -6.344004884019 1
C(fragment=1)       0.000000000000      2.543101615545     -2.566393379313 1 H 11 0.562101936503
H(fragment=1)      -1.593838458262      3.615297183100     -3.074983553731 1
H(fragment=1)       1.593838458262      3.615297183100     -3.074983553731 1
C(fragment=1)       0.000000000000     -2.543101615545     -2.566393379313 1 H 14 0.562101936503
H(fragment=1)      -1.593838458262     -3.615297183100     -3.074983553731 1
H(fragment=1)       1.593838458262     -3.615297183100     -3.074983553731 1
C(fragment=2)       0.000000000000      0.000000000000      2.419258488449 1
S(fragment=2)       0.000000000000      0.000000000000      5.379136687430 1
C(fragment=2)       0.000000000000      2.507479767870      0.949389862308 1 H  3 0.565165513794
H(fragment=2)       1.583295147090      3.593406727954      1.418228721730 1
H(fragment=2)      -1.583295147090      3.593406727954      1.418228721730 1
C(fragment=2)       0.000000000000     -2.507479767870      0.949389862308 1 H  6 0.565165513794
H(fragment=2)       1.583295147090     -3.593406727954      1.418228721730 1
H(fragment=2)      -1.583295147090     -3.593406727954      1.418228721730 1

--Link1--
%chk=test1079
%nosave
#p cis(nstates=3,conver=6)/6-31G(d) eet(fragment=2) geom(check) nosymm test

Gaussian Test Job 1079 (Part 2)
EET C2v fragments symmetry. Not using symmetry.

0 1

