#P hf/3-21g* opt test

Gaussian Test Job 493:
Optimization of BH3PH3

   0   1
 B
 P,1,R2
 H,1,R3,2,A3
 H,1,R4,2,A4,3,D4,0
 H,1,R5,2,A5,3,D5,0
 H,2,R6,1,A6,3,D6,0
 H,2,R7,1,A7,6,D7,0
 H,2,R8,1,A8,6,D8,0
      Variables: 
 R2=1.9491748
 R3=1.20687089
 R4=1.20687094
 R5=1.20687021
 R6=1.40384692
 R7=1.40384722
 R8=1.40384616
 A3=103.86676441
 A4=103.86671245
 A5=103.86682525 
 A6=117.71224579
 A7=117.71255256
 A8=117.71252271
 D4=-119.99995197
 D5=120.00002559
 D6=59.99898461
 D7=-119.99990668
 D8=119.99995101
 
3  1 2 7 A 






