%chk=test0874
#p dftba test force

Gaussian Test Job 874 (Part 1):
Fe2(CO)8 DFTB forces

0,3
 Fe                 0.00000000   -0.00000000    1.46000000
 Fe                -0.00000000   -0.00000000   -1.46000000
 C                  0.00000000    0.00000000   -3.39000000
 O                  0.00000000   -0.00000000   -4.71000000
 C                  0.00000000    0.00000000    3.39000000
 O                  0.00000000    0.00000000    4.71000000
 C                  0.00000000    1.93000000    1.46000000
 O                  0.00000000    3.25000000    1.46000000
 C                 -1.67142903   -0.96500000    1.46000000
 O                 -2.81458256   -1.62500000    1.46000000
 C                  1.67142903   -0.96500000    1.46000000
 O                  2.81458256   -1.62500000    1.46000000
 C                 -1.67142903    0.96500000   -1.46000000
 O                 -2.81458256    1.62500000   -1.46000000
 C                 -0.00000000   -1.93000000   -1.46000000
 O                 -0.00000000   -3.25000000   -1.46000000
 C                  1.67142903    0.96500000   -1.46000000
 O                  2.81458256    1.62500000   -1.46000000

@GAUSS_EXEDIR:dftba.prm

--Link1--
%chk=test0874
%nosave
#p dftba=chk test freq geom=check guess=read

Gaussian Test Job 874 (Part 2):
Fe2(CO)8 DFTB frequencies

0,3

