#p opt=(calcall,tight) hf/6-31g geom=readallgic test

Gaussian Test Job 1154: optimization of 160deg bent O-C-O 
(Part 1: User-provided GIC instructions using Units=default)

0 1
 O                  0.26125611    0.61233709    0.35457861
 C                 -0.86066720    0.18895871    0.39973210
 O                 -1.77422855   -0.35083589    0.10985718

Di1 = R(1,2)  
Ang = A(1,2,3)             ! Regular OCO angle
Li1 = Linear(1,2,3,0,-1)   ! 1st component ("-1") of OCO linear bend ("0" means default choice of projection planes) 
Di2 = R(2,3)
Li2 = Linear(1,2,3,0,-2)   ! 2nd component ("-2") of OCO linear bend ("0" means default choice of projection planes)
Li1(Min=178.,Max=182.,add) ! Add the linear bend only if it is in the range of being around 180 deg.
Li2(Min=178.,Max=182.,add) ! Same for the second component 
Ang(Min=179.9,remove)      ! Remove the regular OCO angle when it becomes near linear (>179.9 deg.)

--link1--
#p opt=(calcall,tight) hf/6-31g geom=readallgic Units=Rad test

Gaussian Test Job 1154: optimization of 160deg bent O-C-O
(Part 2: Same as Part 1 except for Units=Rad and a different input style for Ang)

0 1
 O                  0.26125611    0.61233709    0.35457861
 C                 -0.86066720    0.18895871    0.39973210
 O                 -1.77422855   -0.35083589    0.10985718

Di1 = R(1,2)
Ang(Min=3.139847,remove) = A(1,2,3)
Li1 = L(1,2,3,0,-1)  
Di2 = R(2,3)
Li2 = L(1,2,3,0,-2)  
Li1(Min=3.106686,Max=3.176499,add)
Li2(Min=3.106686,Max=3.176499,add)

--link1--
#p opt=(calcFC,tight) hf/6-31g geom=addgic scf=tight test

Gaussian Test Job 1154: optimization of 160deg bent O-C-O
(Part 3: Same as Part 1 but with geom=addgic, different input style, and calcfc instead of calcall)

0 1
 O                  0.26125611    0.61233709    0.35457861
 C                 -0.86066720    0.18895871    0.39973210
 O                 -1.77422855   -0.35083589    0.10985718

A(1,2,3) remove Min=179.9            ! This coordinate generated by default (along with 2 distances) needs to be removed at above 179.9 deg.
L(1,2,3,0,-1) add IfNot A(1,2,3)     ! Add the linear bend (1st component) if A(1,2,3) is removed
L(1,2,3,0,-2) add IfNot A(1,2,3)     ! Same for the 2nd comp.

--link1--
#p opt=tight hf/6-31g geom=readallgic test

Gaussian Test Job 1154: optimization of 160deg bent O-C-O
(Part 4: Same as Part 1 but with some user-provided initial diagonal Hessian values)

0 1
 O                  0.26125611    0.61233709    0.35457861
 C                 -0.86066720    0.18895871    0.39973210
 O                 -1.77422855   -0.35083589    0.10985718

Di1(ForceConstant=0.5) = R(1,2)                        ! Initial H(Di1,Di1) = 0.5 a.u.; ForceConstant=FC
Ang(FC=0.2,Min=179.9,remove) = A(1,2,3)                ! Initial H(Ang,Ang) = 0.2 a.u.; Note that FC doesn't depend on Min/Max 
Li1(Min=178.,Max=182.,add,FC=0.1) = Linear(1,2,3,0,-1) ! Initial H(Li1,Li1) = 0.1 a.u.
Di2 = R(2,3)
Li2(Min=178.,Max=182.,add,FC=0.1) = Linear(1,2,3,0,-2) ! Initial H(Li2,Li2) = 0.1 a.u.

--link1--
#p opt=tight hf/6-31g geom=addgic Units=Rad test

Gaussian Test Job 1154: optimization of 160deg bent O-C-O
(Part 5: Same as Part 3 but using Units=Rad and with some initial Hessian like in Part 4)

0 1
 O                  0.26125611    0.61233709    0.35457861
 C                 -0.86066720    0.18895871    0.39973210
 O                 -1.77422855   -0.35083589    0.10985718

A(1,2,3) remove Min=3.139847 ForceConstant=0.2     ! Note that FC should be always in a.u. independently of the Units option            
R(1,2) FC=0.5                                      ! Keep R(1,2) generated by addgic but use a user-provided initial Hessian value for it 
L(1,2,3,0,-1) Min=3.106686 Max=3.176499 add FC=0.1
L(1,2,3,0,-2) Min=3.106686 Max=3.176499 add FC=0.1

--link1--
#p opt=tight hf/6-31g geom=addgic test

Gaussian Test Job 1154: optimization of 160deg bent O-C-O
(Part 6: Same as Part 3 but without removal A(1,2,3) and adding L(1,2,3))

0 1
 O                  0.26125611    0.61233709    0.35457861
 C                 -0.86066720    0.18895871    0.39973210
 O                 -1.77422855   -0.35083589    0.10985718

A(1,2,3) freeze Min=179.5 ! Freeze it if it is above 179.5 deg. but don't remove it

