#p pm7 force test

Gaussian Test Job 1142 (Part 1):
Ammonia dimer forces

0 1
 N  -1.578718  -0.046611   0.000000
 H  -2.158621   0.136396  -0.809565
 H  -2.158621   0.136396   0.809565
 H  -0.849471   0.658193   0.000000
 N   1.578718   0.046611   0.000000
 H   2.158621  -0.136396  -0.809565
 H   0.849471  -0.658193   0.000000
 H   2.158621  -0.136396   0.809565

--Link1--
#p pm7 freq test

Gaussian Test Job 1142 (Part 2):
Ammonia dimer frequencies

0 1
 N  -1.578718  -0.046611   0.000000
 H  -2.158621   0.136396  -0.809565
 H  -2.158621   0.136396   0.809565
 H  -0.849471   0.658193   0.000000
 N   1.578718   0.046611   0.000000
 H   2.158621  -0.136396  -0.809565
 H   0.849471  -0.658193   0.000000
 H   2.158621  -0.136396   0.809565

--Link1--
#p pm7 force test

Gaussian Test Job 1142 (Part 3):
Formamide dimer forces

0 1
 C  -2.018649   0.052883   0.000000
 O  -1.452200   1.143634   0.000000
 N  -1.407770  -1.142484   0.000000
 H  -1.964596  -1.977036   0.000000
 H  -0.387244  -1.207782   0.000000
 H  -3.117061  -0.013701   0.000000
 C   2.018649  -0.052883   0.000000
 O   1.452200  -1.143634   0.000000
 N   1.407770   1.142484   0.000000
 H   1.964596   1.977036   0.000000
 H   0.387244   1.207782   0.000000
 H   3.117061   0.013701   0.000000

--Link1--
#p pm7 freq test

Gaussian Test Job 1142 (Part 4):
Formamide dimer frequencies

0 1
 C  -2.018649   0.052883   0.000000
 O  -1.452200   1.143634   0.000000
 N  -1.407770  -1.142484   0.000000
 H  -1.964596  -1.977036   0.000000
 H  -0.387244  -1.207782   0.000000
 H  -3.117061  -0.013701   0.000000
 C   2.018649  -0.052883   0.000000
 O   1.452200  -1.143634   0.000000
 N   1.407770   1.142484   0.000000
 H   1.964596   1.977036   0.000000
 H   0.387244   1.207782   0.000000
 H   3.117061   0.013701   0.000000

--Link1--
#p pm7 force test

Gaussian Test Job 1142 (Part 5):
Formamide dimer cation forces

1,2
 C  -2.018649   0.052883   0.000000
 O  -1.452200   1.143634   0.000000
 N  -1.407770  -1.142484   0.000000
 H  -1.964596  -1.977036   0.000000
 H  -0.387244  -1.207782   0.000000
 H  -3.117061  -0.013701   0.000000
 C   2.018649  -0.052883   0.000000
 O   1.452200  -1.143634   0.000000
 N   1.407770   1.142484   0.000000
 H   1.964596   1.977036   0.000000
 H   0.387244   1.207782   0.000000
 H   3.117061   0.013701   0.000000

--Link1--
#p pm7 freq test

Gaussian Test Job 1142 (Part 6):
Formamide dimer cation frequencies

1,2
 C  -2.018649   0.052883   0.000000
 O  -1.452200   1.143634   0.000000
 N  -1.407770  -1.142484   0.000000
 H  -1.964596  -1.977036   0.000000
 H  -0.387244  -1.207782   0.000000
 H  -3.117061  -0.013701   0.000000
 C   2.018649  -0.052883   0.000000
 O   1.452200  -1.143634   0.000000
 N   1.407770   1.142484   0.000000
 H   1.964596   1.977036   0.000000
 H   0.387244   1.207782   0.000000
 H   3.117061   0.013701   0.000000

--Link1--
#p pm7 force test

Gaussian Test Job 1142 (Part 7):
Formic acid dimer forces

0 1
 C  -1.888896  -0.179692   0.000000
 O  -1.493280   1.073689   0.000000
 O  -1.170435  -1.166590   0.000000
 H  -2.979488  -0.258829   0.000000
 H  -0.498833   1.107195   0.000000
 C   1.888896   0.179692   0.000000
 O   1.493280  -1.073689   0.000000
 O   1.170435   1.166590   0.000000
 H   2.979488   0.258829   0.000000
 H   0.498833  -1.107195   0.000000

--Link1--
#p pm7 freq test

Gaussian Test Job 1142 (Part 8):
Formic acid dimer frequencies

0 1
 C  -1.888896  -0.179692   0.000000
 O  -1.493280   1.073689   0.000000
 O  -1.170435  -1.166590   0.000000
 H  -2.979488  -0.258829   0.000000
 H  -0.498833   1.107195   0.000000
 C   1.888896   0.179692   0.000000
 O   1.493280  -1.073689   0.000000
 O   1.170435   1.166590   0.000000
 H   2.979488   0.258829   0.000000
 H   0.498833  -1.107195   0.000000


