#p opt freq test 3-21g* 

Gaussian Test Job 469:
RDX - diaxial chair Cs, 3-21G opt

0,1
N        0.765138    -0.672929     1.199775
C        1.331172    -1.290632     0.000000
N        0.765138    -0.672929    -1.199775
C        0.750846     0.776784    -1.269294
N        0.201552     1.280291     0.000000
C        0.750846     0.776784     1.269294
H        2.390509    -1.097117     0.000000
H        1.125873    -2.340381     0.000000
H        1.768906     1.116462    -1.401058
H        0.131765     1.100350    -2.078076
H        1.768906     1.116462     1.401058
H        0.131765     1.100350     2.078076
N       -0.322257    -1.332037    -1.793146
O       -0.436968    -2.539853    -1.544967
O       -1.036797    -0.664373    -2.555802
N       -0.322257    -1.332037     1.793146
O       -0.436968    -2.539853     1.544967
O       -1.036797    -0.664373     2.555802
N       -0.240808     2.576438     0.000000
O       -0.416262     3.110393    -1.113295
O       -0.416262     3.110393     1.113295

