#p mp2/6-311G(df,pd) 5d 7f Units=Bohr NMR test

Gaussian Test Job 415:
Fluoro-ethylene MP2 NMR

0,1
F      -2.02476070     0.33315211      .00000000
C       0.24111266    -0.85292320      .00000000
C       2.40542436     0.41348845      .00000000
H       0.04195708    -2.89204527      .00000000
H       2.44295852     2.45832509      .00000000
H       4.17176525    -0.61421962      .00000000

--Link1--
#p mp2/6-311G(df,pd) 5d 7f Units=Bohr NMR test

Gaussian Test Job 415:
Fluoro-ethylene MP2 NMR

1,2
F      -2.02476070     0.33315211      .00000000
C       0.24111266    -0.85292320      .00000000
C       2.40542436     0.41348845      .00000000
H       0.04195708    -2.89204527      .00000000
H       2.44295852     2.45832509      .00000000
H       4.17176525    -0.61421962      .00000000

