%chk=test0571
#p AM1 opt=calcfc scrf=cosmo test 
 
Gaussian Test Job 571 (Part 1):
aspirin COSMO optimization

0 1
 C,0,-1.7897776969,-2.2684232326,-0.0304656968
 C,0,-2.7365986157,-1.2611723342,-0.2247915381
 C,0,-2.3545750609,0.0773343615,-0.185567828
 C,0,-1.0174769482,0.427256189,0.0443350907
 C,0,-0.0770621467,-0.5989398985,0.2651367074
 C,0,-0.4580485992,-1.9460105717,0.2190173967
 C,0,-0.6056156727,1.8345243686,0.042627762
 O,0,-1.6291213212,2.7252127277,0.2230869407
 O,0,0.5156105265,2.3285034415,-0.1144581671
 O,0,1.2009247078,-0.2112976413,0.6403666834
 C,0,2.304633907,-0.7256582437,-0.0146749658
 O,0,2.1465672892,-1.6248837452,-0.8350129432
 C,0,3.5539031792,-0.0524133184,0.4335452663
 H,0,-2.0943934473,-3.3255274337,-0.0720739651
 H,0,-3.7881746915,-1.5237934122,-0.4127761495
 H,0,-3.0983970869,0.8767099092,-0.3373698172
 H,0,0.3003235405,-2.7309775672,0.3583510677
 H,0,-1.2719285904,3.6281956124,0.2010398519
 H,0,4.4243831711,-0.4947120496,-0.1079638319
 H,0,3.481271692,1.0419985269,0.2116848471
 H,0,3.6822636842,-0.1864876085,1.5352494517

--Link1--
%chk=test0571
%nosave
#p BVP86/SVP/Auto geom=allcheck scrf=cosmors test
 
test0571.cosmo

