#p HF/6-31g(df,pd) 5d 7f test

Gaussian Test Job 336 (Part 1):
Th structure via Z-matrix

0 1
X
X1 1 1.0
X2 1 1.0 2 90.0
X3 1 1.0 3 90.0 2 90.0
X4 1 1.0 3 90.0 4 90.0
X5 1 1.0 4 90.0 2 90.0
X6 1 1.0 2 90.0 3 90.0
H 1 R X1 A X2 0.0
H 1 R X1 A X2 180.0
H 1 R X4 A X2 0.0
H 1 R X4 A X2 180.0
H 1 R X2 A X3 0.0
H 1 R X2 A X3 180.0
H 1 R X5 A X3 0.0
H 1 R X5 A X3 180.0
H 1 R X3 A X1 0.0
H 1 R X3 A X1 180.0
H 1 R X6 A X1 0.0
H 1 R X6 A X1 180.0

R 2.0223748416
A 8.5307656099

--Link1--
#p rhf/6-31g(df,pd) 5d 7f test
 
Gaussian Test Job 336 (Part 2):
Th structure via cartesians.

0 1
          1            .300000     .000000    2.000000
          1           -.300000     .000000    2.000000
          1            .300000     .000000   -2.000000
          1           -.300000     .000000   -2.000000
          1           2.000000     .300000     .000000
          1           2.000000    -.300000     .000000
          1          -2.000000     .300000     .000000
          1          -2.000000    -.300000     .000000
          1            .000000    2.000000     .300000
          1            .000000    2.000000    -.300000
          1            .000000   -2.000000     .300000
          1            .000000   -2.000000    -.300000

--Link1--
#p rhf/6-31g(df,pd) 5d 7f test
 
Gaussian Test Job 336 (Part 3):
Th structure via cartesians.

0 1
1   2.000000000   0.300000000   0.000000000
1   2.000000000  -0.300000000   0.000000000
1  -2.000000000   0.300000000   0.000000000
1  -2.000000000  -0.300000000   0.000000000
1   0.300000000   0.000000000   2.000000000
1  -0.300000000   0.000000000   2.000000000
1   0.300000000   0.000000000  -2.000000000
1  -0.300000000   0.000000000  -2.000000000
1   0.000000000   2.000000000   0.300000000
1   0.000000000   2.000000000  -0.300000000
1   0.000000000  -2.000000000   0.300000000
1   0.000000000  -2.000000000  -0.300000000

--Link1--
#p HF/6-31g(df,pd) 5d 7f test nosymm

Gaussian Test Job 336 (Part 4):
Th structure via Z-matrix, nosymm

0 1
X
X1 1 1.0
X2 1 1.0 2 90.0
X3 1 1.0 3 90.0 2 90.0
X4 1 1.0 3 90.0 4 90.0
X5 1 1.0 4 90.0 2 90.0
X6 1 1.0 2 90.0 3 90.0
H 1 R X1 A X2 0.0
H 1 R X1 A X2 180.0
H 1 R X4 A X2 0.0
H 1 R X4 A X2 180.0
H 1 R X2 A X3 0.0
H 1 R X2 A X3 180.0
H 1 R X5 A X3 0.0
H 1 R X5 A X3 180.0
H 1 R X3 A X1 0.0
H 1 R X3 A X1 180.0
H 1 R X6 A X1 0.0
H 1 R X6 A X1 180.0

R 2.0223748416
A 8.5307656099

