%mem=3gb
#p svwn5/sto-3g Int(Grid=UltraFine) freq=numer pbc=nrecip=-24 test

Gaussian Test Job 821:
Si 3d periodic frequencies

0,1
14             0       -0.962615   -0.555484   -0.392594
14             0        0.962615    0.555484    0.392594
Tv             0        3.850045   -0.001276    0.000805
Tv             0        1.925320    3.334464   -0.002137
Tv             0        1.925535    1.109829    3.141745





