#p rhf/lp-31G test nmr=suscep nosymm 

Gaussian Test Job 572:
ch3sh rhf/lp-31G*/b3lyp/6-31G susceptability

0 1
C         -0.048196    1.164320    0.000000
S         -0.048196   -0.671742    0.000000
H          1.292655   -0.834825    0.000000
H         -1.097313    1.469083    0.000000
H          0.432480    1.563846    0.895844
H          0.432480    1.563846   -0.895844

