#p cbs-q=sp test 

Gaussian Test Job 1202 (Part 1):
CBS-Q SP

0,1
 O,0,-0.0468826513,0.,-0.0417526108
 F,0,0.0484798952,0.,1.386969762
 H,0,0.9034994361,0.,-0.2452171513

--Link1--
#p cbs-qb3=sp test 

Gaussian Test Job 1202 (Part 2):
CBS-QB3 SP

0,1
 O,0,-0.0458100366,0.,-0.0422044577
 F,0,0.0477916575,0.,1.3878727357
 H,0,0.903115059,0.,-0.245668278

--Link1--
#p cbs-qb3=noopt test 

Gaussian Test Job 1202 (Part 3):
CBS-QB3 NoOpt

0,1
 O,0,-0.0458100366,0.,-0.0422044577
 F,0,0.0477916575,0.,1.3878727357
 H,0,0.903115059,0.,-0.245668278

--Link1--
#p g3=sp test

Gaussian Test Job 1202 (Part 4):
G3 SP

0,1
 O,0,-0.0534560911,0.,-0.0492513581
 F,0,0.0520705113,0.,1.3905671283
 H,0,0.9064822597,0.,-0.2413157702

--Link1--
#p g3b3=sp test

Gaussian Test Job 1202 (Part 5):
G3B3 SP

0,1
 O,0,-0.0503816431,0.,-0.0430292973
 F,0,0.0495634632,0.,1.3870333252
 H,0,0.9059148598,0.,-0.2440040279

--Link1--
#p g3b3=noopt test

Gaussian Test Job 1202 (Part 6):
G3B3 SP

0,1
 O,0,-0.0503816431,0.,-0.0430292973
 F,0,0.0495634632,0.,1.3870333252
 H,0,0.9059148598,0.,-0.2440040279

