#p lsda/sto-3g admp(maxpoint=10,emass=-1000,bandgap) test

Gaussian Test Job 603 (Part 1):
 1 Water cholesky Non Mass-Weighted 

0,1
       8             0         .000000     .000000     .121752
       1             0         .000000     .793353    -.487009
       1             0         .000000    -.793353    -.487009


--Link1--
#p lsda/sto-3g admp(maxpoint=10,lowdin,emass=-1000,bandgap) test

Gaussian Test Job 603 (Part 2):
 1 Water Lowdin Non Mass-Weighted

0,1
       8             0         .000000     .000000     .121752
       1             0         .000000     .793353    -.487009
       1             0         .000000    -.793353    -.487009


--Link1--
#p lsda/sto-3g admp(maxpoint=10,emass=-1000,bandgap) test sparse=20

Gaussian Test Job 603 (Part 3):
 1 Water Non Mass-Weighted Sparse=20 Cholesky

0,1
       8             0         .000000     .000000     .121752
       1             0         .000000     .793353    -.487009
       1             0         .000000    -.793353    -.487009


--Link1--
#p lsda/sto-3g admp(maxpoint=10,bandgap) test

Gaussian Test Job 603 (Part 4):
 1 Water cholesky Mass-Weighted

0,1
       8             0         .000000     .000000     .121752
       1             0         .000000     .793353    -.487009
       1             0         .000000    -.793353    -.487009


--Link1--
#p lsda/sto-3g admp(maxpoint=10,lowdin,bandgap) test

Gaussian Test Job 603 (Part 5):
 1 Water Lowdin Mass-Weighted

0,1
       8             0         .000000     .000000     .121752
       1             0         .000000     .793353    -.487009
       1             0         .000000    -.793353    -.487009


--Link1--
#p lsda/sto-3g admp(maxpoint=10,bandgap) test sparse=20

Gaussian Test Job 603 (Part 6):
 1 Water cholesky Mass-Weighted sparse=20 Cholesky

0,1
       8             0         .000000     .000000     .121752
       1             0         .000000     .793353    -.487009
       1             0         .000000    -.793353    -.487009


--Link1--
#p lsda/sto-3g admp=bandgap test geom=rharm

Gaussian Test Job 603 (Part 7):
  3 water molecules Mass-weighted atoms harmonically constrained Cholesky 

 0  1
 O                 -0.194000   -0.490000   -0.153000
 H                  0.332000    0.310000    0.055000
 H                  0.413000   -1.237000    0.030000
 O                 -0.479000   -5.382000    3.439000
 H                 -0.992000   -6.214000    3.382000
 H                 -0.048000   -5.420000    4.317000
 O                  3.348000    1.462000    1.460000
 H                  4.009000    0.807000    1.766000
 H                  2.836000    0.992000    0.770000


  -0.194000   -0.490000   -0.153000
   0.332000    0.310000    0.055000
   0.413000   -1.237000    0.030000
  -0.479000   -5.382000    3.439000
  -0.992000   -6.214000    3.382000
  -0.048000   -5.420000    4.317000
   3.348000    1.462000    1.460000
   4.009000    0.807000    1.766000
   2.836000    0.992000    0.770000

   0.000010    0.000020    0.000030
   0.000040    0.000050    0.000060
   0.000070    0.000080    0.000090
   0.000110    0.000120    0.000130
   0.000150    0.000160    0.000140
   0.000180    0.000190    0.000230
   0.000190    0.000200    0.000330
   0.000210    0.000020    0.000430
   0.000310    0.000020    0.000630


--Link1--
%chk=test0603
%kjob l502 6
#p lsda/sto-3g admp(maxpoint=10,cholesky,bandgap) test geom=rharm

Gaussian Test Job 603 (Part 8):
  3 water molecules Mass-weighted constrained Cholesky Restart test 

 0  1
 O                 -0.194000   -0.490000   -0.153000
 H                  0.332000    0.310000    0.055000
 H                  0.413000   -1.237000    0.030000
 O                 -0.479000   -5.382000    3.439000
 H                 -0.992000   -6.214000    3.382000
 H                 -0.048000   -5.420000    4.317000
 O                  3.348000    1.462000    1.460000
 H                  4.009000    0.807000    1.766000
 H                  2.836000    0.992000    0.770000


  -0.194000   -0.490000   -0.153000
   0.332000    0.310000    0.055000
   0.413000   -1.237000    0.030000
  -0.479000   -5.382000    3.439000
  -0.992000   -6.214000    3.382000
  -0.048000   -5.420000    4.317000
   3.348000    1.462000    1.460000
   4.009000    0.807000    1.766000
   2.836000    0.992000    0.770000

   0.000010    0.000020    0.000030
   0.000040    0.000050    0.000060
   0.000070    0.000080    0.000090
   0.000110    0.000120    0.000130
   0.000150    0.000160    0.000140
   0.000180    0.000190    0.000230
   0.000190    0.000200    0.000330
   0.000210    0.000020    0.000430
   0.000310    0.000020    0.000630


--Link1--
%chk=test0603
%nosave
#p lsda/sto-3g admp(maxpoint=10,cholesky,restart,bandgap) test geom=rharm

--Link1--
#p lsda/sto-3g admp(maxpoint=10,cholesky,bandgap) field=z+123 test geom=rharm

Gaussian Test Job 603 (Part 10):
3 water molecules Mass-weighted constrained Cholesky Field_Z = 0.123 a.u.

 0  1
 O                 -0.194000   -0.490000   -0.153000
 H                  0.332000    0.310000    0.055000
 H                  0.413000   -1.237000    0.030000
 O                 -0.479000   -5.382000    3.439000
 H                 -0.992000   -6.214000    3.382000
 H                 -0.048000   -5.420000    4.317000
 O                  3.348000    1.462000    1.460000
 H                  4.009000    0.807000    1.766000
 H                  2.836000    0.992000    0.770000


  -0.194000   -0.490000   -0.153000
   0.332000    0.310000    0.055000
   0.413000   -1.237000    0.030000
  -0.479000   -5.382000    3.439000
  -0.992000   -6.214000    3.382000
  -0.048000   -5.420000    4.317000
   3.348000    1.462000    1.460000
   4.009000    0.807000    1.766000
   2.836000    0.992000    0.770000

   0.000010    0.000020    0.000030
   0.000040    0.000050    0.000060
   0.000070    0.000080    0.000090
   0.000110    0.000120    0.000130
   0.000150    0.000160    0.000140
   0.000180    0.000190    0.000230
   0.000190    0.000200    0.000330
   0.000210    0.000020    0.000430
   0.000310    0.000020    0.000630


--Link1--
#p lsda/sto-3g admp(maxpoint=10,cholesky,nke=51279,bandgap) test
iop(1/80=1000000,1/81=1,1/82=300,1/89=1)

Gaussian Test Job 603 (Part 11):
3 H2O Mass-weighted Cholesky Constant T 300K +/- 1K. 
Init Nucl vel = 51279microH

 0  1
 O                 -0.194000   -0.490000   -0.153000
 H                  0.332000    0.310000    0.055000
 H                  0.413000   -1.237000    0.030000
 O                 -0.479000   -5.382000    3.439000
 H                 -0.992000   -6.214000    3.382000
 H                 -0.048000   -5.420000    4.317000
 O                  3.348000    1.462000    1.460000
 H                  4.009000    0.807000    1.766000
 H                  2.836000    0.992000    0.770000


--Link1--
#p lsda/sto-3g admp=(bandgap,nke=51279) test iop(1/80=1200100,1/81=1,1/82=300,1/89=1)

Gaussian Test Job 603 (Part 12):
3 H2O Mass-weighted Cholesky Temperature Ramp.
Init Nucl vel = 51279microH
Ramp Rate = +1 Kelvin per step

 0  1
 O                 -0.194000   -0.490000   -0.153000
 H                  0.332000    0.310000    0.055000
 H                  0.413000   -1.237000    0.030000
 O                 -0.479000   -5.382000    3.439000
 H                 -0.992000   -6.214000    3.382000
 H                 -0.048000   -5.420000    4.317000
 O                  3.348000    1.462000    1.460000
 H                  4.009000    0.807000    1.766000
 H                  2.836000    0.992000    0.770000


--Link1--
#p lsda/sto-3g admp=(bandgap,nke=51279) test iop(1/80=-1200210,1/81=1,1/82=300,1/89=1)

Gaussian Test Job 603 (Part 13):
3 H2O Mass-weighted Cholesky Temperature Ramp.
Init Nucl vel = 51279microH
Ramp Rate = -2.1 Kelvin per step

 0  1
 O                 -0.194000   -0.490000   -0.153000
 H                  0.332000    0.310000    0.055000
 H                  0.413000   -1.237000    0.030000
 O                 -0.479000   -5.382000    3.439000
 H                 -0.992000   -6.214000    3.382000
 H                 -0.048000   -5.420000    4.317000
 O                  3.348000    1.462000    1.460000
 H                  4.009000    0.807000    1.766000
 H                  2.836000    0.992000    0.770000


--Link1--
#p lsda/sto-3g admp(maxpoint=10,emass=-1000,bandgap) oniom(hf:uff) test

Gaussian Test Job 603 (Part 14):
3 H2O Non-Mass-weighted Cholesky ONIOM No Link atom

 0  1  0  1
 O                 -0.194000   -0.490000   -0.153000
 H                  0.332000    0.310000    0.055000
 H                  0.413000   -1.237000    0.030000
 O                 -0.479000   -5.382000    3.439000   Low  
 H                 -0.992000   -6.214000    3.382000   Low
 H                 -0.048000   -5.420000    4.317000   Low
 O                  3.348000    1.462000    1.460000   Low
 H                  4.009000    0.807000    1.766000   Low
 H                  2.836000    0.992000    0.770000   Low


--Link1--
#p admp(maxpoint=5,emass=-1000,bandgap) oniom(b3lyp/3-21G*:uff) test

Gaussian Test Job 603 (Part 15):
 ADMP Non-Mass Weighted Cholesky oniom Link Atom 

 0  1  0  1
 C                -12.425000    0.000000  -15.450000
 C                -12.425000    0.000000  -14.054840
 C                -11.217249    0.000000  -13.357302
 C                -10.008740   -0.001199  -14.054956
 C                -10.008818   -0.001678  -15.449781
 C                -11.217024   -0.000682  -16.147382
 H                -13.377317    0.000450  -15.999759
 H                -13.377513    0.001315  -13.505332
 H                 -9.056597   -0.001258  -13.504756
 H                 -9.056537   -0.002631  -15.999903
 H                -11.216841   -0.000862  -17.246986
 C                -11.217137    0.000888  -11.817302  Low  H
 C                -12.425364    0.001459  -11.119693  Low
 C                -12.425540    0.002834   -9.724982  Low
 C                -11.217083    0.002439   -9.027238  Low
 C                -10.009185    0.001389   -9.724747  Low
 C                -10.009181    0.001010  -11.119884  Low
 H                -13.377522    0.002139  -11.669817  Low
 H                -13.377838    0.003918   -9.175050  Low
 H                -11.217472    0.003464   -7.927558  Low
 H                 -9.056611    0.001070   -9.175131  Low
 H                 -9.056818    0.000380  -11.669551  Low


--Link1--
#p admp(maxpoint=5,bandgap) oniom(b3lyp/3-21G*:uff) test

Gaussian Test Job 603 (Part 16):
 ADMP Mass Weighted Cholesky oniom Link Atom 

 0  1  0  1
 C                -12.425000    0.000000  -15.450000
 C                -12.425000    0.000000  -14.054840
 C                -11.217249    0.000000  -13.357302
 C                -10.008740   -0.001199  -14.054956
 C                -10.008818   -0.001678  -15.449781
 C                -11.217024   -0.000682  -16.147382
 H                -13.377317    0.000450  -15.999759
 H                -13.377513    0.001315  -13.505332
 H                 -9.056597   -0.001258  -13.504756
 H                 -9.056537   -0.002631  -15.999903
 H                -11.216841   -0.000862  -17.246986
 C                -11.217137    0.000888  -11.817302  Low  H
 C                -12.425364    0.001459  -11.119693  Low
 C                -12.425540    0.002834   -9.724982  Low
 C                -11.217083    0.002439   -9.027238  Low
 C                -10.009185    0.001389   -9.724747  Low
 C                -10.009181    0.001010  -11.119884  Low
 H                -13.377522    0.002139  -11.669817  Low
 H                -13.377838    0.003918   -9.175050  Low
 H                -11.217472    0.003464   -7.927558  Low
 H                 -9.056611    0.001070   -9.175131  Low
 H                 -9.056818    0.000380  -11.669551  Low


--Link1--
#p admp(maxpoint=5,bandgap) oniom(b3lyp/3-21G*:uff) field = z+123 test

Gaussian Test Job 603 (Part 17):
 ADMP Non-Mass Weighted Cholesky oniom Link Atom Field_Z = 0.123 a.u.

 0  1  0  1
 C                -12.425000    0.000000  -15.450000
 C                -12.425000    0.000000  -14.054840
 C                -11.217249    0.000000  -13.357302
 C                -10.008740   -0.001199  -14.054956
 C                -10.008818   -0.001678  -15.449781
 C                -11.217024   -0.000682  -16.147382
 H                -13.377317    0.000450  -15.999759
 H                -13.377513    0.001315  -13.505332
 H                 -9.056597   -0.001258  -13.504756
 H                 -9.056537   -0.002631  -15.999903
 H                -11.216841   -0.000862  -17.246986
 C                -11.217137    0.000888  -11.817302  Low  H
 C                -12.425364    0.001459  -11.119693  Low
 C                -12.425540    0.002834   -9.724982  Low
 C                -11.217083    0.002439   -9.027238  Low
 C                -10.009185    0.001389   -9.724747  Low
 C                -10.009181    0.001010  -11.119884  Low
 H                -13.377522    0.002139  -11.669817  Low
 H                -13.377838    0.003918   -9.175050  Low
 H                -11.217472    0.003464   -7.927558  Low
 H                 -9.056611    0.001070   -9.175131  Low
 H                 -9.056818    0.000380  -11.669551  Low


--Link1--
#p admp(maxpoint=5,emass=-1000,bandgap) oniom(b3lyp/3-21G*:uff) test geom=rharm

Gaussian Test Job 603 (Part 18):
 ADMP Non-Mass Weighted Cholesky oniom Constrained

 0  1  0  1
 C                -12.425000    0.000000  -15.450000
 C                -12.425000    0.000000  -14.054840
 C                -11.217249    0.000000  -13.357302
 C                -10.008740   -0.001199  -14.054956
 C                -10.008818   -0.001678  -15.449781
 C                -11.217024   -0.000682  -16.147382
 H                -13.377317    0.000450  -15.999759
 H                -13.377513    0.001315  -13.505332
 H                 -9.056597   -0.001258  -13.504756
 H                 -9.056537   -0.002631  -15.999903
 H                -11.216841   -0.000862  -17.246986
 C                -11.217137    0.000888  -11.817302  Low  H
 C                -12.425364    0.001459  -11.119693  Low
 C                -12.425540    0.002834   -9.724982  Low
 C                -11.217083    0.002439   -9.027238  Low
 C                -10.009185    0.001389   -9.724747  Low
 C                -10.009181    0.001010  -11.119884  Low
 H                -13.377522    0.002139  -11.669817  Low
 H                -13.377838    0.003918   -9.175050  Low
 H                -11.217472    0.003464   -7.927558  Low
 H                 -9.056611    0.001070   -9.175131  Low
 H                 -9.056818    0.000380  -11.669551  Low


    -12.425000    0.000000  -15.450000
    -12.425000    0.000000  -14.054840
    -11.217249    0.000000  -13.357302
    -10.008740   -0.001199  -14.054956
    -10.008818   -0.001678  -15.449781
    -11.217024   -0.000682  -16.147382
    -13.377317    0.000450  -15.999759
    -13.377513    0.001315  -13.505332
     -9.056597   -0.001258  -13.504756
     -9.056537   -0.002631  -15.999903
    -11.216841   -0.000862  -17.246986
    -11.217137    0.000888  -11.817302  
    -12.425364    0.001459  -11.119693  
    -12.425540    0.002834   -9.724982  
    -11.217083    0.002439   -9.027238  
    -10.009185    0.001389   -9.724747  
    -10.009181    0.001010  -11.119884  
    -13.377522    0.002139  -11.669817  
    -13.377838    0.003918   -9.175050  
    -11.217472    0.003464   -7.927558  
     -9.056611    0.001070   -9.175131  
     -9.056818    0.000380  -11.669551  

   0.000010    0.000020    0.000030
   0.000040    0.000050    0.000060
   0.000070    0.000080    0.000090
   0.000110    0.000120    0.000130
   0.000150    0.000160    0.000140
   0.000180    0.000190    0.000230
   0.000190    0.000200    0.000330
   0.000210    0.000020    0.000430
   0.000310    0.000020    0.000630
   0.000010    0.000020    0.000030
   0.000040    0.000050    0.000060
   0.000070    0.000080    0.000090
   0.000110    0.000120    0.000130
   0.000150    0.000160    0.000140
   0.000180    0.000190    0.000230
   0.000190    0.000200    0.000330
   0.000210    0.000020    0.000430
   0.000310    0.000020    0.000630
   0.000010    0.000020    0.000030
   0.000040    0.000050    0.000060
   0.000070    0.000080    0.000090
   0.000110    0.000120    0.000130


--Link1--
#p lsda/sto-3g admp(maxpoint=10,cholesky,bandgap) test

Gaussian Test Job 603 (Part 19):
  3 water molecules Mass-weighted Cholesky 1D PBC Box (7,0,0)

 0  1
 O                 -0.194000   -0.490000   -0.153000
 H                  0.332000    0.310000    0.055000
 H                  0.413000   -1.237000    0.030000
 O                 -0.479000   -5.382000    3.439000
 H                 -0.992000   -6.214000    3.382000
 H                 -0.048000   -5.420000    4.317000
 O                  3.348000    1.462000    1.460000
 H                  4.009000    0.807000    1.766000
 H                  2.836000    0.992000    0.770000
Tv                  7.000000    0.000000    0.000000







