#P TEST UHF/6-31G* scf=conventional

Gaussian Test Job 04
6-31G*//6-31G* ETHYL RADICAL

0,2
C
C,1,RCC
H,1,R1,2,A1
X,1,1.,2,X1,3,180.,0
H,1,R2,4,A2,2,90.,0
H,1,R2,4,A2,2,-90.,0
H,2,R3,1,A3,3,0.,0
H,2,R4,1,A4,3,180.,0

RCC=1.4985
R1=1.08422
R2=1.0886
R3=1.07398
R4=1.07507
A1=111.48882
X1=127.99832
A2=53.40128
A3=121.54216
A4=120.49668


