#p opt=(verytigh,nomicro) freq amber test

Gaussian Test Job 427:
Ethylacetamide - agrees with TINKER, no charges,
exercises multi-term torsions

0,1
C-C     0.937978   -0.497940    0.000000
O-O     0.500341   -1.677789    0.000000
N-N     0.000000    0.633916    0.000000
H-H     0.513241    1.492160    0.000000
C-CT   -1.379783    0.126866    0.000000
C-CT   -2.362427    1.312619    0.000000
H-H1   -1.540576   -0.469606    0.873651
H-H1   -1.540576   -0.469606   -0.873651
H-HC   -3.366759    0.943543    0.000000
H-HC   -2.201634    1.909092    0.873651
H-HC   -2.201634    1.909092   -0.873651
C-CT    2.456193   -0.239821    0.000000
H-H1    2.723271    0.317226   -0.873651
H-H1    2.723271    0.317226    0.873651
H-H1    2.976899   -1.174575    0.000000

