#p rhf/3-21g scf=(tight,novaracc) test units=au

Gaussian Test Job 599 (Part 1):
Phenyl radical, default guess

0,1
c   2.68000000000000       .00000000000000       .00000000000000              
c   1.34000000000000      2.32094808214230       .00000000000000              
c  -1.34000000000000      2.32094808214230       .00000000000000              
c  -2.68000000000000       .00000000000000       .00000000000000              
c  -1.34000000000000     -2.32094808214230       .00000000000000              
c   1.34000000000000     -2.32094808214230       .00000000000000              
h   4.72000000000000       .00000000000000       .00000000000000              
h   2.36000000000000      4.08763990586255       .00000000000000              
h  -2.36000000000000      4.08763990586255       .00000000000000              
h  -4.72000000000000       .00000000000000       .00000000000000              
h  -2.36000000000000     -4.08763990586255       .00000000000000              
h   2.36000000000000     -4.08763990586255       .00000000000000              

--Link1--
#p rhf/3-21g scf=(tight,novaracc) test units=au guess=indo

Gaussian Test Job 599 (Part 2):
Phenyl radical, indo guess

0,1
c   2.68000000000000       .00000000000000       .00000000000000              
c   1.34000000000000      2.32094808214230       .00000000000000              
c  -1.34000000000000      2.32094808214230       .00000000000000              
c  -2.68000000000000       .00000000000000       .00000000000000              
c  -1.34000000000000     -2.32094808214230       .00000000000000              
c   1.34000000000000     -2.32094808214230       .00000000000000              
h   4.72000000000000       .00000000000000       .00000000000000              
h   2.36000000000000      4.08763990586255       .00000000000000              
h  -2.36000000000000      4.08763990586255       .00000000000000              
h  -4.72000000000000       .00000000000000       .00000000000000              
h  -2.36000000000000     -4.08763990586255       .00000000000000              
h   2.36000000000000     -4.08763990586255       .00000000000000              

--Link1--
%chk=test0599a
#p rhf/3-21g scf=(tight,novaracc) test units=au guess=(only,save)

Gaussian Test Job 599 (Part 3):
Phenyl radical, guess only

0,1
c   2.68000000000000       .00000000000000       .00000000000000              
c   1.34000000000000      2.32094808214230       .00000000000000              
c  -1.34000000000000      2.32094808214230       .00000000000000              
c  -2.68000000000000       .00000000000000       .00000000000000              
c  -1.34000000000000     -2.32094808214230       .00000000000000              
c   1.34000000000000     -2.32094808214230       .00000000000000              
h   4.72000000000000       .00000000000000       .00000000000000              
h   2.36000000000000      4.08763990586255       .00000000000000              
h  -2.36000000000000      4.08763990586255       .00000000000000              
h  -4.72000000000000       .00000000000000       .00000000000000              
h  -2.36000000000000     -4.08763990586255       .00000000000000              
h   2.36000000000000     -4.08763990586255       .00000000000000              

--Link1--
%chk=test0599a
%nosave
#p rhf/3-21g scf=(tight,novaracc) test units=au guess=read

Gaussian Test Job 599 (Part 4):
Phenyl radical, reading from default guess only

0,1
c   2.68000000000000       .00000000000000       .00000000000000              
c   1.34000000000000      2.32094808214230       .00000000000000              
c  -1.34000000000000      2.32094808214230       .00000000000000              
c  -2.68000000000000       .00000000000000       .00000000000000              
c  -1.34000000000000     -2.32094808214230       .00000000000000              
c   1.34000000000000     -2.32094808214230       .00000000000000              
h   4.72000000000000       .00000000000000       .00000000000000              
h   2.36000000000000      4.08763990586255       .00000000000000              
h  -2.36000000000000      4.08763990586255       .00000000000000              
h  -4.72000000000000       .00000000000000       .00000000000000              
h  -2.36000000000000     -4.08763990586255       .00000000000000              
h   2.36000000000000     -4.08763990586255       .00000000000000              

--Link1--
%chk=test0599b
#p rhf/3-21g scf=(tight,novaracc) test units=au guess=(only,save,indo)

Gaussian Test Job 599 (Part 5):
Phenyl radical, indo guess only

0,1
c   2.68000000000000       .00000000000000       .00000000000000              
c   1.34000000000000      2.32094808214230       .00000000000000              
c  -1.34000000000000      2.32094808214230       .00000000000000              
c  -2.68000000000000       .00000000000000       .00000000000000              
c  -1.34000000000000     -2.32094808214230       .00000000000000              
c   1.34000000000000     -2.32094808214230       .00000000000000              
h   4.72000000000000       .00000000000000       .00000000000000              
h   2.36000000000000      4.08763990586255       .00000000000000              
h  -2.36000000000000      4.08763990586255       .00000000000000              
h  -4.72000000000000       .00000000000000       .00000000000000              
h  -2.36000000000000     -4.08763990586255       .00000000000000              
h   2.36000000000000     -4.08763990586255       .00000000000000              

--Link1--
%chk=test0599b
%nosave
#p rhf/3-21g scf=(tight,novaracc) test units=au guess=read

Gaussian Test Job 599 (Part 6):
Phenyl radical, reading indo guess

0,1
c   2.68000000000000       .00000000000000       .00000000000000              
c   1.34000000000000      2.32094808214230       .00000000000000              
c  -1.34000000000000      2.32094808214230       .00000000000000              
c  -2.68000000000000       .00000000000000       .00000000000000              
c  -1.34000000000000     -2.32094808214230       .00000000000000              
c   1.34000000000000     -2.32094808214230       .00000000000000              
h   4.72000000000000       .00000000000000       .00000000000000              
h   2.36000000000000      4.08763990586255       .00000000000000              
h  -2.36000000000000      4.08763990586255       .00000000000000              
h  -4.72000000000000       .00000000000000       .00000000000000              
h  -2.36000000000000     -4.08763990586255       .00000000000000              
h   2.36000000000000     -4.08763990586255       .00000000000000              

