%chk=test1095
#p ghseh1pbe/genecp nosymm scf(conver=9,novaracc,noincfock) force test 
int(acc2e=12,grid=ultrafine) iop(4/118=2) iop(4/13=16)

Gaussian Test Job 1095 (Part 1):
HgF -- GKS periodic, spin-orbit, rotated, cell-symmetric guess

0 4
Hg  0.000  0.000  0.000
F   2.700  0.000  0.000
Tv  5.400  0.000  0.000
Tv  2.700  2.700  0.000

-HG  0
S   3 1.00       0.000000000000
     0.2684204900D+02 -0.2824769994D-01
     0.1032090900D+02  0.8202913981D+00
     0.6344923000D+01 -0.1740676996D+01
S   1 1.00       0.000000000000
     0.1450305000D+01  0.1000000000D+01
S   1 1.00       0.000000000000
     0.7082150000D+00  0.1000000000D+01
S   1 1.00       0.000000000000
     0.1676060000D+00  0.1000000000D+01
P   2 1.00       0.000000000000
     0.9772990000D+01  0.8855368743D+00
     0.7169095000D+01 -0.1836456347D+01
P   2 1.00       0.000000000000
     0.1868009000D+01  0.4904266601D+00
     0.9733010000D+00  0.5415629559D+00
P   1 1.00       0.000000000000
     0.4219970000D+00  0.1000000000D+01
P   1 1.00       0.000000000000
     0.1252130000D+00  0.1000000000D+01
D   4 1.00       0.000000000000
     0.4911447000D+01 -0.1428566962D+00
     0.3049550000D+01  0.1988171947D+00
     0.1344501000D+01  0.4885400869D+00
     0.5766180000D+00  0.5143446862D+00
D   1 1.00       0.000000000000
     0.2102450000D+00  0.1000000000D+01
****
-F  0
6-31G(d)
****

-HG  0
HG-ECP   5   60
H POTENTIAL         
 1
2          1.00000000        0.00000000
S-H POTENTIAL       
2 
2         12.413071   2750.774797
2        6.897913    490.267898
P-H POTENTIAL       
 4
2  11.310320    80.506984           -161.013967 
2  10.210773   161.034824   161.034824
2   5.939804     9.083416   -18.166832
2   5.019755    18.367773   18.367773
D-H POTENTIAL       
 4
2  8.407895    51.137256               -51.137256
2  8.214086    76.707459     51.138306
2 4.012612     6.561821     -6.561821
2 3.795398     9.818070      6.545380
F-H POTENTIAL       
 2
2   3.273106     9.429001   -6.286001
2   3.208321    12.494856   6.247428
G-H POTENTIAL       
 2
2  4.485296    -6.338414      3.169207
2  4.513200    -8.099863     -3.239945

1.0 1.0 0.0

--Link1--
%chk=test1095
%nosave
#p ghseh1pbe/chkbasis nosymm scf(conver=9,novaracc,noincfock) force test 
int(acc2e=12,grid=ultrafine) guess(check)

Gaussian Test Job 1095 (Part 2):
HgF -- GKS periodic, spin-orbit, rotated, analytical forces

0 2
Hg  0.000  0.000  0.000
F   2.700  0.000  0.000
Tv  5.700  0.000  0.000
Tv  2.700  2.400  0.000

