%mem=20gb
#p lsda/sto-3g opt=gic test int=ultrafine

Gaussian Test Job 1172:
Ice Ih coordinates (GIC default)

0 1
 O                  3.27917734    0.65284013    0.52994514
 O                  3.27917287    3.26419280    4.21344515
 O                  3.27917287    3.26419280    6.97017655
 O                  3.27917734    0.65284013    3.28667654
 H                  3.27917287    3.26419280    5.96826455
 H                  3.27917734    0.65284013    2.28476454
 H                  4.10530111    3.74115815    7.29948144
 H                  4.71454923    4.09290770    3.61598145
 H                  4.10530103    0.17587478    0.20064025
 H                  4.71454914   -0.17587478    3.88414024
 H                  3.27917510    1.60676691    0.20064025
 H                  3.27917511    2.31026602    3.88414024
 Tv                 4.52300009    0.00000000    0.00000000
 Tv                 2.26150013    3.91703293    0.00000000
 Tv                 0.00000000    0.00000000    7.36700000

