#p CBS-4O geom=modela test

Gaussian Test Job 299 (Part 1):
CH2 3-B1 CBS-4O

0,3
c h h -o

--Link1--
#p CBS-4M geom=modela test

Gaussian Test Job 299 (Part 2):
CH2 3-B1 CBS-4M

0,3
c h h -o

--Link1--
#p CBS-LQ geom=modela test

Gaussian Test Job 299 (Part 3):
CH2 3-B1 CBS-q

0,3
c h h -o

--Link1--
#p CBS-Q geom=modela test

Gaussian Test Job 299 (Part 4):
CH2 3-B1 CBS-Q

0,3
c h h -o

--Link1--
#p CBS-QB3O geom=modela test

Gaussian Test Job 299 (Part 5):
CH2 3-B1 CBS-QB3O

0,3
c h h -o

--Link1--
#p CBS-QB3 geom=modela test

Gaussian Test Job 299 (Part 6):
CH2 3-B1 CBS-QB3

0,3
c h h -o

