#p td(full,sos,direct)/sto-5g test 

Gaussian Test Job 494 (Part 1):
twisted (10 deg) ethylene  sto-5g  D2 symm
Test of ECD

 0  1
6            0.670000    0.000000    0.000000
6           -0.670000    0.000000    0.000000
1            1.215000    0.940376    0.082272
1            1.215000   -0.940376   -0.082272
1           -1.215000   -0.940376    0.082272
1           -1.215000    0.940376   -0.082272

0.0 0.05

--Link1--
#p rhf/sto-3g test td(full,singlet,nstates=10,direct) 

Gaussian Test Job 494 (Part 2):
(1R,2R)-trans-1,2-dimethylcyclopropane (C2)
rhf/sto-3g/b3lyp/6-31G* td ecd 

0  1
C     0.470077   -0.591248   -0.063213
C     0.000000    0.000000    1.247048
C    -0.470077    0.591248   -0.063213
H     1.501082   -0.362297   -0.334371
C     0.000000   -1.962285   -0.502852
H     0.709184    0.573149    1.840245
H    -0.709184   -0.573149    1.840245
H    -1.501082    0.362297   -0.334371
C     0.000000    1.962285   -0.502852
H     1.040433    2.135751   -0.202673
H    -0.053371    2.073943   -1.593179
H    -0.609406    2.757211   -0.054776
H    -1.040433   -2.135751   -0.202673
H     0.053371   -2.073943   -1.593179
H     0.609406   -2.757211   -0.054776

--Link1--
#p pbe1pbe/sto-3g test td(full,singlet,nstates=10) 

Gaussian Test Job 494 (Part 3):
(1R,2R)-trans-1,2-dimethylcyclopropane (C2)
pbe1pbe/sto-3g/b3lyp/6-31G* ecd 

0  1
C     0.470077   -0.591248   -0.063213
C     0.000000    0.000000    1.247048
C    -0.470077    0.591248   -0.063213
H     1.501082   -0.362297   -0.334371
C     0.000000   -1.962285   -0.502852
H     0.709184    0.573149    1.840245
H    -0.709184   -0.573149    1.840245
H    -1.501082    0.362297   -0.334371
C     0.000000    1.962285   -0.502852
H     1.040433    2.135751   -0.202673
H    -0.053371    2.073943   -1.593179
H    -0.609406    2.757211   -0.054776
H    -1.040433   -2.135751   -0.202673
H     0.053371   -2.073943   -1.593179
H     0.609406   -2.757211   -0.054776

