#p mp2/6-31G Counterpoise=2 test opt
 
Gaussian Test Job 563:
Counterpoise with cartesian input
 
0,1 
          9        0.000000    0.000000    0.000000 1
          1        0.000000    0.000000    0.925842 1
          9        0.175968    0.000000    2.734716 2
          1        0.775715    0.000000    3.435641 2

