#p UFF=QEq Freq test

Gaussian Test Job 858:
QEq which has to fix charges.

0 1
 N                 -0.48452418   -2.72659809   -0.17266038
 H                  0.08477900   -2.91236508    0.62500507
 C                 -1.08922536   -1.39377157   -0.03922319
 H                 -1.67545033   -1.17760057   -0.91198883
 C                 -1.99795435   -1.34844227    1.20491711
 C                  0.03103902   -0.35037625    0.10331540
 H                 -2.77930418   -2.07326206    1.10216708
 C                 -1.17069524   -1.66756562    2.46360811
 C                 -2.61275961    0.05929610    1.33652555
 O                  1.15432561   -0.56646339   -0.41611838
 H                 -0.39494482   -0.93925707    2.57686243
 H                 -1.80933491   -1.64435630    3.32309439
 H                 -0.73700670   -2.63989407    2.36752139
 H                 -1.82930114    0.78048737    1.43005434
 H                 -3.19644999    0.27626753    0.46758799
 C                 -3.51335430    0.11989743    2.58382923
 H                 -2.92944341   -0.09656015    3.45439513
 H                 -3.93548837    1.09914929    2.67217045
 H                 -4.29810485   -0.60072276    2.49212261
 C                 -1.53042336   -3.75301777   -0.26761731
 C                 -1.24048232   -5.17910613    0.24524812
 O                 -2.65187557   -3.46990261   -0.76120055
 N                 -2.05505160   -6.14698420   -0.49941331
 H                 -1.47803505   -5.24028156    1.28617424
 C                  0.25720484   -5.49910175    0.03529803
 H                 -3.02438607   -5.93714835   -0.36422609
 H                 -1.86377048   -7.06933148   -0.16764935
 H                 -1.83525989   -6.09105107   -1.47257497
 H                  0.47108999   -6.48525964    0.39381033
 C                  0.59320452   -5.41924746   -1.46627768
 C                  1.11111077   -4.47552871    0.80628933
 H                  0.37210377   -4.43708684   -1.83129320
 H                  1.63275978   -5.62830521   -1.61121504
 H                  0.00703820   -6.13752423   -2.00123060
 H                  0.89545441   -4.54585319    1.85210450
 H                  0.88208701   -3.49018703    0.46044820
 C                  2.60626165   -4.76561820    0.56305837
 H                  2.81637488   -4.70110897   -0.48493190
 H                  3.19801417   -4.04916566    1.09183892
 H                  2.84139130   -5.75030316    0.91323820
 N                 -0.19603574    0.89699235    0.83767379
 H                 -1.15769617    1.16673680    0.75957425
 C                  0.65623706    1.93055797    0.25147859
 H                  1.68097517    1.63566683    0.33642475
 C                  0.28574642    2.08954979   -1.23286119
 C                  0.44434052    3.26137851    0.99425353
 H                  0.41718022    1.15184504   -1.73296042
 C                 -1.18718240    2.53170799   -1.34784838
 C                  1.18716890    3.14653716   -1.89008747
 O                 -0.71416635    3.52573293    1.52628721
 O                  1.41849411    4.11727362    1.09259617
 H                 -1.32084361    3.46590566   -0.84234678
 H                 -1.44271284    2.64395012   -2.38118289
 H                 -1.82013539    1.79298903   -0.90268184
 H                  1.05329286    4.08842318   -1.40042709
 H                  2.21020224    2.84614858   -1.80770028
 C                  0.80603426    3.27848892   -3.37673923
 H                 -0.21817320    3.58054462   -3.45703432
 H                  1.43117357    4.00981828   -3.84412695
 H                  0.93841673    2.33435008   -3.86237776

