%chk=test0565
#p gen scf=tight units=bohr test int=dkh iop(3/93=1)

Gaussian Test Job 565 (Part 1):
H2O Douglas-Kroll-Hess, point nuclei - E(SCF) = -76.0750913434

0,1
O  0.0      0.0 0.0
H  1.41491  0.0 1.09381
H -1.41491  0.0 1.09381

  1 0
 S     7 1.00       0.000000000000
      0.1172000000D+05  0.7100043070D-03
      0.1759000000D+04  0.5470868965D-02
      0.4008000000D+03  0.2783700000D-01
      0.1137000000D+03  0.1048584907D+00
      0.3703000000D+02  0.2832603813D+00
      0.1327000000D+02  0.4504937059D+00
      0.5025000000D+01  0.2724942230D+00
 S     7 1.00       0.000000000000
      0.1172000000D+05 -0.1562668391D-06
      0.1759000000D+04 -0.3152785861D-04
      0.1137000000D+03 -0.2122164457D-02
      0.3703000000D+02 -0.7197680569D-02
      0.1327000000D+02 -0.6438998577D-01
      0.5025000000D+01 -0.5595502931D-01
      0.1013000000D+01  0.5608480907D+00
 S     1 1.00       0.000000000000
      0.3023000000D+00  0.1000000000D+01
 P     3 1.00       0.000000000000
      0.1770000000D+02  0.4301800000D-01
      0.3854000000D+01  0.2289130000D+00
      0.1046000000D+01  0.5087280000D+00
 P     1 1.00       0.000000000000
      0.2753000000D+00  0.1000000000D+01
 D     1 1.00       0.000000000000
      0.1185000000D+01  0.1000000000D+01
 ****
  2 0
 S     3 1.00       0.000000000000
      0.1301000000D+02  0.1968500000D-01
      0.1962000000D+01  0.1379770000D+00
      0.4446000000D+00  0.4781480000D+00
 S     1 1.00       0.000000000000
      0.1220000000D+00  0.1000000000D+01
 P     1 1.00       0.000000000000
      0.7270000000D+00  0.1000000000D+01
 ****
  3 0
 S     3 1.00       0.000000000000
      0.1301000000D+02  0.1968500000D-01
      0.1962000000D+01  0.1379770000D+00
      0.4446000000D+00  0.4781480000D+00
 S     1 1.00       0.000000000000
      0.1220000000D+00  0.1000000000D+01
 P     1 1.00       0.000000000000
      0.7270000000D+00  0.1000000000D+01
 ****

--Link1--
%chk=test0565
%nosave
#p rhf/chkbas scf=tight geom=check guess=read test int=dkh

Gaussian Test Job 565 (Part 2):
H2O Douglas-Kroll-Hess, finite nuclei

0,1

