#p opt amber test mdv=2000000 iop(1/2=-1,2/2=-1)

Gaussian Test Job 448:
Crambin Amber optimization, no charges

0,1
N-N 17.047000 14.099000 3.625000
C-CT 16.967000 12.784000 4.338000
C-C 15.685000 12.755000 5.133000
O-O 15.268000 13.825000 5.594000
H-H 17.900029 14.138747 3.085684
H-H 17.041114 14.849741 4.300613
H-H 16.253872 14.196388 3.007291
H-H1 16.961000 11.966831 3.601658
C-CT 18.170000 12.703000 5.337000
O-OH 19.334000 12.829000 4.463000
C-CT 18.150000 11.546000 6.304000
H-H1 18.120023 13.598486 5.973873
H-HO 20.094838 12.786811 5.013405
H-HC 19.025617 11.559427 6.969669
H-HC 18.153889 10.579369 5.779016
H-HC 17.254383 11.567167 6.942296
N-N 15.115000 11.555000 5.265000
C-CT 13.856000 11.469000 6.066000
C-C 14.164000 10.785000 7.379000
O-O 14.993000 9.862000 7.443000
H-H 15.684631 10.727876 5.157820
H-H1 13.474568 12.482263 6.260440
C-CT 12.732000 10.711000 5.261000
O-OH 13.308000 9.439000 4.926000
C-CT 12.484000 11.442000 3.895000
H-H1 11.898564 10.537954 5.957735
H-HO 12.657039 8.962923 4.443092
H-HC 11.703830 10.940778 3.303298
H-HC 13.394723 11.468371 3.278649
H-HC 12.161433 12.482827 4.045430
N-N 13.488000 11.241000 8.417000
C-CT 13.660000 10.707000 9.787000
C-C 12.269000 10.431000 10.323000
O-O 11.393000 11.308000 10.185000
H-H 12.823778 11.987528 8.270013
H-H1 14.230775 9.767569 9.745950
C-CT 14.368000 11.748000 10.691000
P-S 15.885000 12.426000 10.016000
H-H1 14.613722 11.286948 11.659014
H-H1 13.686880 12.589772 10.884638
N-N 12.019000 9.272000 10.928000
C-CT 10.646000 8.991000 11.408000
C-C 10.654000 8.793000 12.919000
O-O 11.659000 8.296000 13.491000
H-H 12.789574 8.743719 11.311712
H-H1 9.987649 9.834120 11.151635
C-CT 10.057000 7.752000 10.682000
P-S 9.837000 8.018000 8.904000
H-H1 9.070225 7.513071 11.105305
H-H1 10.736368 6.895916 10.806816
N-N 9.561000 9.108000 13.563000
C-CT 9.448000 9.034000 15.012000
C-C 9.288000 7.670000 15.606000
O-O 9.490000 7.519000 16.819000
H-H1 10.310621 9.536690 15.473723
C-CT 8.230000 9.957000 15.345000
C-CT 7.338000 9.786000 14.114000
C-CT 8.366000 9.804000 12.958000
H-HC 8.545436 11.003909 15.465343
H-HC 7.715830 9.623069 16.258301
H-HC 6.622350 10.616387 14.022880
H-HC 6.793255 8.830929 14.147061
H-H1 8.613455 10.834045 12.661735
H-H1 7.988611 9.256863 12.081520
N-N 8.875000 6.686000 14.796000
C-CT 8.673000 5.314000 15.279000
C-C 8.753000 4.376000 14.083000
O-O 8.726000 4.858000 12.923000
H-H 8.715272 6.889946 13.819786
H-H1 9.463682 5.058299 15.999722
C-CT 7.340000 5.121000 15.996000
O-OH 6.274000 5.220000 15.031000
H-H1 7.221116 5.906929 16.756383
H-H1 7.321261 4.125214 16.462969
H-HO 5.468610 5.097500 15.499979
N-N 8.881000 3.075000 14.358000
C-CT 8.912000 2.083000 13.258000
C-C 7.581000 2.090000 12.506000
O-O 7.670000 2.031000 11.245000
H-H 8.713571 2.755120 15.301263
H-H1 9.727755 2.330836 12.562931
C-CT 9.207000 .677000 13.924000
C-CT 10.714000 .702000 14.312000
C-CT 8.811000 -.477000 12.969000
C-CT 11.185000 -.516000 15.142000
H-HC 8.614656 .628975 14.849647
H-HC 10.936430 1.628755 14.861227
H-HC 11.326166 .784983 13.401853
H-HC 9.010368 -1.461008 13.418421
H-HC 9.371224 -.430457 12.023494
H-HC 7.740917 -.444347 12.716302
H-HC 12.254850 -.448585 15.388733
H-HC 11.034479 -1.459776 14.597363
H-HC 10.635451 -.595885 16.091534
N-N 6.458000 2.162000 13.159000
C-CT 5.145000 2.209000 12.453000
C-C 5.115000 3.379000 11.461000
O-O 4.664000 3.268000 10.343000
H-H 6.481204 2.298835 14.159419
H-H1 4.984989 1.264699 11.911990
C-CT 3.995000 2.354000 13.478000
C-CT 2.716000 2.891000 12.869000
C-CT 3.758000 1.032000 14.208000
H-HC 4.335474 3.065343 14.244856
H-HC 1.917521 2.983243 13.619948
H-HC 2.339801 2.233155 12.071683
H-HC 2.865074 3.887210 12.427025
H-HC 2.942930 1.115191 14.941989
H-HC 4.655493 .703645 14.752691
H-HC 3.487234 .226573 13.509450
N-N 5.606000 4.546000 11.941000
C-CT 5.598000 5.767000 11.082000
C-C 6.441000 5.527000 9.850000
O-O 6.052000 5.933000 8.744000
H-H 6.193225 4.529139 12.762573
H-H1 4.565363 5.997531 10.781139
C-CT 6.022000 6.977000 11.891000
H-HC 6.016482 7.877342 11.259056
H-HC 7.036987 6.831048 12.289120
H-HC 5.331218 7.132072 12.732887
N-N 7.647000 4.909000 10.005000
C-CT 8.496000 4.609000 8.837000
C-C 7.798000 3.609000 7.876000
O-O 7.878000 3.778000 6.651000
H-H 7.868141 4.482694 10.893516
H-H1 8.720731 5.540828 8.297378
C-CT 9.847000 4.020000 9.305000
C-CT 10.752000 3.607000 8.149000
C-CT 11.226000 4.699000 7.244000
N-N2 12.143000 5.571000 8.035000
C-CA 12.758000 6.609000 7.443000
N-N2 12.539000 6.932000 6.158000
N-N2 13.601000 7.322000 8.202000
H-HC 9.633505 3.150964 9.944685
H-HC 10.349701 4.777494 9.924270
H-HC 10.254678 2.826888 7.553941
H-HC 11.617794 3.052736 8.540398
H-H1 10.364611 5.289615 6.898771
H-H1 11.774954 4.261618 6.397037
H-H 12.457465 5.245886 8.938057
H-H 11.902506 6.414092 5.569148
H-H 13.029038 7.722764 5.764737
H-H 13.775718 7.102356 9.172222
H-H 14.080381 8.109213 7.788975
N-N 7.186000 2.582000 8.445000
C-CT 6.500000 1.584000 7.565000
C-C 5.382000 2.313000 6.773000
O-O 5.213000 2.016000 5.557000
H-H 6.909393 2.652334 9.413835
H-H1 7.227647 1.153618 6.861223
C-CT 5.908000 .462000 8.400000
O-OH 6.990000 -.272000 9.012000
H-H1 5.331838 -.209808 7.746769
H-H1 5.267544 .893303 9.183450
H-HO 6.600263 -.958808 9.521903
N-N 4.648000 3.182000 7.446000
C-CT 3.545000 3.935000 6.751000
C-C 4.107000 4.851000 5.691000
O-O 3.536000 5.001000 4.617000
H-H 4.979503 3.514073 8.340390
H-H1 2.848386 3.220936 6.287490
C-CT 2.663000 4.677000 7.748000
C-C 1.802000 3.735000 8.610000
O-O 1.567000 2.613000 8.165000
N-N 1.394000 4.252000 9.767000
H-HC 2.017174 5.364352 7.181912
H-HC 3.316883 5.283566 8.391829
H-H 1.646000 5.193475 10.031992
H-H .824325 3.705236 10.396777
N-N 5.259000 5.498000 6.005000
C-CT 5.929000 6.358000 5.055000
C-C 6.304000 5.578000 3.799000
O-O 6.136000 6.072000 2.653000
H-H 5.712548 5.291850 6.883576
H-H1 5.266019 7.193009 4.784417
C-CT 7.183000 6.994000 5.754000
C-CA 7.884000 8.006000 4.883000
C-CA 8.906000 7.586000 4.027000
C-CA 7.532000 9.373000 4.983000
C-CA 9.560000 8.539000 3.194000
C-CA 8.176000 10.281000 4.145000
C-CA 9.141000 9.845000 3.292000
H-HC 7.874254 6.179067 6.014867
H-HC 6.845237 7.469868 6.686452
H-HA 9.190516 6.534344 3.992787
H-HA 6.759856 9.686983 5.685359
H-HA 10.358008 8.220061 2.523506
H-HA 7.927942 11.341130 4.196873
H-HA 9.647328 10.551898 2.634712
N-N 6.900000 4.390000 3.989000
C-CT 7.331000 3.607000 2.791000
C-C 6.116000 3.210000 1.915000
O-O 6.240000 3.144000 .684000
H-H 6.762109 3.907625 4.865584
H-H1 8.033898 4.206523 2.193918
C-CT 8.145000 2.404000 3.240000
C-C 9.555000 2.856000 3.730000
O-O 10.013000 3.895000 3.323000
N-N 10.120000 1.956000 4.539000
H-HC 8.245282 1.724035 2.381169
H-HC 7.600421 1.914648 4.060956
H-H 9.642789 1.097194 4.773141
H-H 11.036535 2.125056 4.928209
N-N 4.993000 2.927000 2.571000
C-CT 3.782000 2.599000 1.742000
C-C 3.296000 3.871000 1.004000
O-O 2.947000 3.817000 -.189000
H-H 4.863612 3.296060 3.502211
H-H1 4.040027 1.823403 1.005881
C-CT 2.698000 1.953000 2.608000
C-CT 1.384000 1.826000 1.806000
C-CT 3.174000 .533000 3.005000
H-HC 2.518582 2.629623 3.456523
H-HC .586368 1.363801 2.406129
H-HC 1.516668 1.206381 .906850
H-HC 1.015547 2.807938 1.474275
H-HC 2.431351 .017409 3.631609
H-HC 4.114864 .565623 3.573955
H-HC 3.348998 -.097399 2.120708
N-N 3.321000 4.987000 1.720000
C-CT 2.890000 6.285000 1.126000
C-C 3.687000 6.597000 -.111000
O-O 3.200000 7.147000 -1.103000
H-H 3.811314 4.991383 2.602991
H-H1 1.821059 6.235296 .871257
C-CT 3.039000 7.369000 2.240000
P-S 2.559000 9.014000 1.649000
H-H1 4.090254 7.425800 2.558808
H-H1 2.383692 7.117590 3.086974
N-N 4.997000 6.227000 -.100000
C-CT 5.895000 6.489000 -1.213000
C-C 5.738000 5.560000 -2.409000
O-O 6.228000 5.901000 -3.507000
H-H 5.359625 5.751447 .713911
H-H1 5.778666 7.532538 -1.540865
C-CT 7.370000 6.507000 -.731000
C-CT 7.717000 7.687000 .206000
C-CT 7.949000 8.947000 -.615000
N-N2 9.212000 8.856000 -1.337000
C-CA 9.537000 9.533000 -2.431000
N-N2 8.659000 10.350000 -3.032000
N-N2 10.793000 9.491000 -2.899000
H-HC 8.016211 6.530598 -1.620862
H-HC 7.571618 5.551968 -.223789
H-HC 8.626620 7.447729 .776386
H-HC 6.887343 7.854163 .908657
H-H1 7.969598 9.821353 .052146
H-H1 7.124617 9.075092 -1.331928
H-H 9.896634 8.215334 -.961602
H-H 7.720394 10.487432 -2.685257
H-H 8.946736 10.846941 -3.862878
H-H 11.522203 8.956344 -2.448995
H-H 11.019167 10.013624 -3.733154
N-N 5.051000 4.411000 -2.204000
C-CT 4.933000 3.431000 -3.326000
C-C 4.397000 4.014000 -4.620000
O-O 4.988000 3.755000 -5.687000
H-H 4.389165 4.365437 -1.442423
H-H1 5.912092 2.965007 -3.511011
C-CT 4.196000 2.184000 -2.863000
C-CT 4.960000 1.178000 -1.991000
C-CT 3.907000 .097000 -1.634000
C-CT 6.129000 .606000 -2.768000
H-HC 3.792310 1.679708 -3.753351
H-HC 3.277413 2.505056 -2.350047
H-HC 5.241055 1.702603 -1.065905
H-HC 4.336802 -.693678 -1.001466
H-HC 3.503873 -.388727 -2.534865
H-HC 3.055435 .526581 -1.086005
H-HC 6.697445 -.120042 -2.168222
H-HC 6.831569 1.392759 -3.080101
H-HC 5.794896 .086846 -3.678414
N-N 3.329000 4.795000 -4.543000
C-CT 2.792000 5.376000 -5.797000
C-C 3.573000 6.540000 -6.322000
O-O 3.260000 7.045000 -7.422000
H-H1 2.734569 4.594272 -6.568753
C-CT 1.358000 5.766000 -5.472000
C-CT 1.223000 5.694000 -3.993000
C-CT 2.421000 4.941000 -3.408000
H-HC .641109 5.096576 -5.969935
H-HC 1.126106 6.774895 -5.843962
H-HC .274273 5.218910 -3.702816
H-HC 1.130488 6.697768 -3.552670
H-H1 2.119313 3.960408 -3.011232
H-H1 2.890760 5.512149 -2.593682
N-N 4.565000 7.047000 -5.559000
C-CT 5.366000 8.191000 -6.018000
C-C 5.007000 9.481000 -5.280000
O-O 5.535000 10.510000 -5.730000
H-H 4.868134 6.532315 -4.744562
H-H1 6.434505 7.971775 -5.875738
H-H1 5.217963 8.332878 -7.098720
N-N 4.181000 9.438000 -4.262000
C-CT 3.767000 10.609000 -3.513000
C-C 5.017000 11.397000 -3.042000
O-O 5.947000 10.757000 -2.523000
H-H 3.812777 8.539465 -3.984248
H-H1 3.146184 11.253484 -4.152709
C-CT 2.992000 10.188000 -2.225000
O-OH 2.051000 9.144000 -2.623000
C-CT 2.260000 11.349000 -1.551000
H-H1 3.727341 9.743982 -1.537889
H-HO 1.582810 8.888567 -1.848951
H-HC 1.724549 11.020500 -.648016
H-HC 1.517773 11.804483 -2.223038
H-HC 2.956117 12.144412 -1.246465
N-N 4.971000 12.703000 -3.176000
C-CT 6.143000 13.513000 -2.696000
C-C 6.400000 13.233000 -1.225000
O-O 5.485000 13.061000 -.382000
H-H1 7.036097 13.249221 -3.281489
C-CT 5.703000 14.969000 -2.920000
C-CT 4.676000 14.893000 -3.996000
C-CT 3.964000 13.567000 -3.811000
H-HC 6.552003 15.598801 -3.224211
H-HC 5.284313 15.403973 -2.000489
H-HC 5.137703 14.961018 -4.992095
H-HC 3.971112 15.735142 -3.933307
H-H1 3.636574 13.153248 -4.776195
H-H1 3.075531 13.678306 -3.172068
N-N 7.728000 13.297000 -.921000
C-CT 8.114000 13.103000 .500000
C-C 7.427000 14.073000 1.410000
O-O 7.036000 13.682000 2.540000
H-H 8.345241 13.815266 -1.529698
H-H1 7.872490 12.075313 .809082
C-CT 9.648000 13.285000 .660000
C-CT 10.440000 12.093000 .063000
C-C 11.941000 12.170000 .391000
O-O2 12.416000 13.225000 .681000
O-O2 12.539000 11.070000 .292000
H-HC 9.866785 13.382067 1.733644
H-HC 9.932595 14.218086 .151713
H-HC 10.303264 12.071018 -1.028247
H-HC 10.027948 11.148629 .448197
N-N 7.212000 15.334000 .966000
C-CT 6.614000 16.317000 1.913000
C-C 5.212000 15.936000 2.350000
O-O 4.782000 16.166000 3.495000
H-H 7.124240 15.495126 -.027195
H-H1 7.260500 16.414756 2.797580
C-CT 6.605000 17.695000 1.246000
H-HC 6.167673 18.442447 1.924283
H-HC 6.009580 17.665635 .321547
H-HC 7.631049 18.002552 .995728
N-N 4.445000 15.318000 1.405000
C-CT 3.074000 14.894000 1.756000
C-C 3.085000 13.643000 2.645000
O-O 2.315000 13.523000 3.578000
H-H 4.896912 14.900022 .604269
H-H1 2.559418 15.712634 2.280446
C-CT 2.204000 14.637000 .462000
C-CT 1.815000 16.048000 -.129000
C-CT .903000 13.864000 .811000
C-CT .756000 16.761000 .757000
H-HC 2.852470 14.126754 -.265417
H-HC 1.417749 15.922815 -1.147096
H-HC 2.715064 16.676062 -.202636
H-HC .289354 13.679561 -.083103
H-HC .279695 14.421971 1.525254
H-HC 1.122290 12.885815 1.263843
H-HC .482281 17.744887 .348290
H-HC 1.127137 16.924111 1.779571
H-HC -.169283 16.171384 .835763
N-N 4.032000 12.764000 2.313000
C-CT 4.180000 11.549000 3.187000
C-C 4.632000 11.944000 4.596000
O-O 4.227000 11.252000 5.547000
H-H 4.826235 13.079781 1.774881
H-H1 3.217818 11.019067 3.245104
C-CT 5.038000 10.518000 2.539000
P-S 4.349000 9.794000 1.022000
H-H1 5.219762 9.694692 3.245489
H-H1 6.012073 10.959683 2.281905
N-N 5.408000 13.012000 4.694000
C-CT 5.879000 13.502000 6.026000
C-C 4.696000 13.908000 6.882000
O-O 4.528000 13.422000 8.025000
H-H 5.538021 13.598931 3.882393
H-H1 6.442179 12.704336 6.532519
C-CT 6.880000 14.615000 5.830000
H-HC 7.233732 14.983621 6.804162
H-HC 6.417487 15.449873 5.283128
H-HC 7.744312 14.251572 5.254774
N-N 3.827000 14.802000 6.358000
C-CT 2.691000 15.221000 7.194000
C-C 1.672000 14.132000 7.434000
O-O .947000 14.112000 8.468000
H-H 3.751290 14.880611 5.353914
H-H1 3.063519 15.594495 8.159262
C-CT 1.986000 16.520000 6.614000
O-OH 1.664000 16.221000 5.230000
C-CT 2.914000 17.739000 6.700000
H-H1 1.043267 16.647980 7.166156
H-HO 1.245386 16.984461 4.875754
H-HC 2.432532 18.643486 6.299884
H-HC 3.841255 17.583100 6.129130
H-HC 3.202902 17.955485 7.739072
N-N 1.621000 13.190000 6.511000
C-CT .715000 12.045000 6.657000
C-C 1.125000 11.125000 7.815000
O-O .286000 10.632000 8.545000
H-H 2.342603 13.156531 5.805119
H-H1 -.310703 12.406958 6.821074
C-CT .755000 11.229000 5.322000
C-CA -.203000 10.044000 5.354000
C-CA -1.547000 10.337000 5.645000
C-CA .193000 8.750000 5.100000
C-CA -2.496000 9.329000 5.673000
C-CA -.801000 7.705000 5.156000
C-C -2.079000 8.031000 5.430000
O-OH -3.097000 7.057000 5.458000
H-HC 1.785871 10.875466 5.172603
H-HC .484166 11.909690 4.501446
H-HA -1.852157 11.366519 5.832270
H-HA 1.234940 8.535619 4.862301
H-HA -3.535659 9.565416 5.899531
H-HA -.516657 6.671261 4.959449
H-HO -2.695334 6.197686 5.255162
N-N 2.470000 10.984000 7.995000
C-CT 2.986000 9.994000 8.950000
C-C 3.609000 10.505000 10.230000
O-O 3.766000 9.715000 11.186000
H-H 3.087540 11.709855 7.660517
H-H1 2.194644 9.268887 9.190763
C-CT 4.076000 9.103000 8.225000
O-OH 5.125000 10.027000 7.824000
C-CT 3.493000 8.324000 7.035000
H-H1 4.489824 8.421225 8.982584
H-HO 5.785720 9.518550 7.389801
H-HC 4.258635 7.709022 6.539415
H-HC 3.074611 8.999761 6.274541
H-HC 2.685008 7.647572 7.350586
N-N 3.984000 11.764000 10.241000
C-CT 4.769000 12.336000 11.360000
C-C 6.255000 12.243000 11.106000
O-O 7.037000 12.750000 11.954000
H-H 3.669574 12.375055 9.500833
H-H1 4.486640 13.389070 11.506001
H-H1 4.521703 11.805063 12.291102
N-N 6.710000 11.631000 9.992000
C-CT 8.140000 11.694000 9.635000
C-C 8.500000 13.141000 9.206000
O-O 7.581000 13.949000 8.944000
H-H 6.045348 11.319697 9.298150
H-H1 8.748671 11.406795 10.505077
C-CT 8.504000 10.686000 8.530000
P-S 8.048000 8.987000 8.881000
H-H1 9.589972 10.707873 8.356260
H-H1 8.007677 10.974602 7.591718
N-N 9.793000 13.410000 9.173000
C-CT 10.280000 14.760000 8.823000
C-C 11.346000 14.658000 7.743000
O-O 11.971000 13.583000 7.552000
H-H 10.453145 12.646703 9.214056
H-H1 9.441200 15.368883 8.454658
C-CT 10.790000 15.535000 10.085000
C-CT 12.059000 14.803000 10.671000
C-CT 9.684000 15.686000 11.138000
C-CT 12.733000 15.676000 11.781000
H-HC 11.096548 16.535508 9.745864
H-HC 12.780862 14.615635 9.862415
H-HC 11.759838 13.834019 11.097119
H-HC 10.040841 16.230137 12.024893
H-HC 9.315584 14.708069 11.481396
H-HC 8.820021 16.239332 10.741308
H-HC 13.620732 15.181260 12.201910
H-HC 12.043462 15.873896 12.614891
H-HC 13.058067 16.650599 11.387949
N-N 11.490000 15.773000 7.038000
C-CT 12.552000 15.877000 6.036000
C-C 13.590000 16.917000 6.560000
O-O 13.168000 18.006000 6.945000
H-H 11.031602 16.615344 7.354904
H-H1 13.040728 14.898859 5.916059
C-CT 11.987000 16.360000 4.681000
C-CT 10.914000 15.338000 4.163000
C-CT 13.131000 16.517000 3.629000
C-CT 10.151000 16.024000 2.938000
H-HC 11.484889 17.321049 4.866119
H-HC 10.195901 15.120277 4.967320
H-HC 11.415970 14.422537 3.816657
H-HC 12.744120 16.860556 2.658282
H-HC 13.653397 15.564960 3.453723
H-HC 13.885159 17.247581 3.956867
H-HC 9.378327 15.361841 2.520242
H-HC 10.842236 16.275609 2.120146
H-HC 9.652374 16.956074 3.242320
N-N 14.856000 16.493000 6.536000
C-CT 15.930000 17.454000 6.941000
C-C 16.913000 17.550000 5.819000
O-O 17.097000 16.660000 4.970000
H-H 15.098010 15.706653 5.950176
H-H1 15.486567 18.443451 7.126348
C-CT 16.622000 16.995000 8.285000
C-CT 17.360000 15.651000 8.067000
C-CT 15.592000 16.974000 9.434000
C-CT 18.298000 15.206000 9.219000
H-HC 17.370007 17.760387 8.539301
H-HC 17.928246 15.692535 7.126058
H-HC 16.625642 14.857547 7.864142
H-HC 16.049937 16.657020 10.382587
H-HC 14.764421 16.280652 9.223331
H-HC 15.150837 17.967797 9.600563
H-HC 18.786625 14.246162 8.995491
H-HC 17.748049 15.080204 10.163314
H-HC 19.094104 15.943045 9.400610
N-N 17.664000 18.669000 5.806000
C-CT 18.635000 18.861000 4.738000
C-C 19.925000 18.042000 4.949000
O-O 20.593000 17.742000 3.945000
H-H1 18.179987 18.587665 3.774542
C-CT 18.945000 20.364000 4.783000
C-CT 18.238000 20.937000 5.908000
C-CT 17.371000 19.900000 6.596000
H-HC 18.660901 20.857115 3.841658
H-HC 20.027341 20.544808 4.859458
H-HC 17.644984 21.811341 5.601633
H-HC 18.934433 21.407402 6.617720
H-H1 16.305902 20.167946 6.534586
H-H1 17.660957 19.774850 7.649690
N-N 20.172000 17.730000 6.217000
C-CT 21.452000 16.969000 6.513000
C-C 21.143000 15.478000 6.427000
O-O 20.138000 15.023000 5.878000
H-H 19.399012 17.658048 6.863074
H-H1 22.215382 17.229521 5.765085
H-H1 21.798667 17.214214 7.527737
N-N 22.055000 14.701000 7.032000
C-CT 22.019000 13.242000 7.020000
C-C 21.944000 12.628000 8.396000
O-O 21.869000 11.387000 8.435000
H-H 22.811618 15.153114 7.525176
H-H1 21.163571 12.900743 6.418515
C-CT 23.246000 12.697000 6.275000
H-HC 23.225091 11.597273 6.262238
H-HC 24.169926 13.027018 6.772442
H-HC 23.253566 13.062253 5.237439
N-N 21.894000 13.435000 9.436000
C-CT 21.936000 12.911000 10.809000
C-C 20.615000 13.191000 11.521000
O-O 20.357000 14.317000 11.948000
H-H 21.667074 14.408299 9.290077
H-H1 22.116184 11.826178 10.782650
C-CT 23.131000 13.601000 11.593000
O-OH 24.284000 13.401000 10.709000
C-CT 23.340000 12.935000 12.962000
H-H1 22.910688 14.678007 11.631971
H-HO 25.024657 13.795664 11.132400
H-HC 24.165848 13.402774 13.518023
H-HC 23.579282 11.866193 12.860046
H-HC 22.440093 13.009533 13.590181
N-N 19.827000 12.110000 11.642000
C-CT 18.504000 12.312000 12.298000
C-C 18.684000 12.451000 13.784000
O-O 19.533000 11.718000 14.362000
H-H 20.252573 11.194456 11.669681
H-H1 18.031219 13.221433 11.898737
C-CT 17.582000 11.117000 11.996000
P-S 17.199000 10.929000 10.237000
H-H1 16.628935 11.244346 12.530275
H-H1 18.064772 10.186978 12.330650
N-N 17.880000 13.266000 14.426000
C-CT 17.924000 13.421000 15.877000
C-C 17.392000 12.206000 16.594000
O-O 16.652000 11.368000 16.033000
H-H1 18.959888 13.610617 16.194777
C-CT 17.076000 14.658000 16.145000
C-CT 16.098000 14.689000 14.997000
C-CT 16.859000 14.150000 13.779000
H-HC 17.694435 15.567463 16.165380
H-HC 16.554078 14.581010 17.110231
H-HC 15.729245 15.709426 14.816027
H-HC 15.210181 14.076933 15.214143
H-H1 17.337750 14.965062 13.216442
H-H1 16.194959 13.573340 13.118309
N-N 17.728000 12.124000 17.884000
C-CT 17.334000 10.956000 18.691000
C-C 15.875000 10.688000 18.871000
O-O 15.434000 9.550000 19.166000
H-H 18.075630 12.948304 18.352803
H-H1 17.827095 10.054776 18.297741
H-H1 17.821893 11.008448 19.675484
N-N 15.036000 11.747000 18.715000
C-CT 13.564000 11.573000 18.836000
C-C 12.936000 11.227000 17.470000
O-O 11.720000 11.040000 17.428000
H-H 15.396988 12.603695 18.320207
H-H1 13.347157 10.768499 19.554163
C-CT 12.933000 12.737000 19.580000
C-C 13.140000 14.094000 18.958000
O-O2 14.109000 14.303000 18.212000
O-O2 12.267000 14.963000 19.265000
H-HC 13.322088 12.731425 20.608873
H-HC 11.857479 12.529955 19.681913
N-N 13.725000 11.174000 16.425000
C-CT 13.257000 10.745000 15.081000
C-C 14.275000 9.687000 14.612000
O-O 14.930000 9.862000 13.568000
H-H 14.693820 11.436219 16.537820
H-H1 12.262151 10.283896 15.168510
C-CT 13.200000 11.914000 14.071000
C-CA 12.000000 12.819000 14.399000
C-CA 12.119000 13.853000 15.332000
C-CA 10.775000 12.617000 13.762000
C-CA 11.045000 14.675000 15.610000
C-CA 9.676000 13.433000 14.048000
C-C 9.802000 14.456000 14.996000
O-OH 8.740000 15.265000 15.269000
H-HC 13.084227 11.485781 13.064409
H-HC 14.136572 12.483958 14.160335
H-HA 13.069853 14.025296 15.836274
H-HA 10.666743 11.816520 13.030144
H-HA 11.148100 15.478528 16.339256
H-HA 8.725199 13.263525 13.542672
H-HO 7.996388 14.980740 14.714800
N-N 14.342000 8.640000 15.422000
C-CT 15.445000 7.667000 15.246000
C-C 15.171000 6.533000 14.280000
O-O 16.093000 5.705000 14.039000
H-H 13.512817 8.354835 15.923236
H-H1 16.357899 8.198383 14.939002
C-CT 15.680000 7.099000 16.682000
H-HC 16.490631 6.355566 16.668445
H-HC 14.764246 6.616393 17.054134
H-HC 15.956554 7.910692 17.370966
N-N 13.966000 6.502000 13.739000
C-CT 13.512000 5.395000 12.878000
C-C 13.311000 5.853000 11.455000
O-O2 13.733000 6.929000 11.026000
H-H 13.331550 7.266152 13.922425
H-H1 14.254329 4.583575 12.901193
C-CT 12.266000 4.769000 13.501000
C-C 12.538000 4.304000 14.922000
O-O 11.982000 4.849000 15.886000
N-N 13.407000 3.298000 15.015000
H-HC 11.968491 3.914187 12.875873
H-HC 11.469579 5.527756 13.499387
H-H 13.831169 2.900959 14.188841
H-H 13.652823 2.918839 15.918276
O-O2 12.703000 4.973000 10.746000



