%rwf=test0893
%nosave
%mem=100mw
#p pm6 freq test iop(10/73=-6)

Gaussian Test Job 893 (Part 1):
Ac(Ala)9NH gas-phase freq, stopping in mid-CPHF.

0,2
 N                  8.21016016    0.23463873    0.84358254
 C                  7.39436622    1.19351821    0.07491517
 C                  6.01552816    0.66333928   -0.37316317
 O                  5.00841915    1.35575053   -0.19993967
 H                  8.46188121    0.52753379    1.77721423
 H                  4.16229927   -2.62350360   -2.96916131
 C                  8.86245069   -0.85366656    0.34223305
 H                  7.14560638    1.99078886    0.77836563
 C                  8.15263475    1.80724541   -1.11577723
 H                  9.05023297    2.32206848   -0.75901636
 H                  7.51308385    2.53824481   -1.62030350
 H                  8.45173365    1.03985671   -1.83242674
 N                  5.97940832   -0.54601532   -0.98673918
 C                  4.77899126   -0.99413151   -1.69063249
 C                  3.56613691   -1.16791949   -0.76571429
 O                  2.42220414   -1.07467364   -1.22300091
 H                  5.37013882   -3.09464861   -1.75428163
 H                  2.49321326   -2.03124696    3.60478353
 H                  6.87912612   -0.99968492   -1.17445314
 H                  4.46738083   -0.22216212   -2.40360232
 C                  5.06392012   -2.29985962   -2.44310305
 H                  5.86044495   -2.15211930   -3.17944350
 N                  3.81389194   -1.44116560    0.53455995
 C                  2.73802811   -1.57539879    1.51155544
 C                  1.84534013   -0.31938991    1.60842244
 O                  0.67101376   -0.44988984    1.95671465
 H                  3.98834348   -1.14808106    3.24773186
 H                  1.90267674    4.24134029    1.35909490
 H                  4.77806883   -1.47142247    0.83948136
 H                  2.06338359   -2.37115317    1.18223256
 C                  3.31079732   -1.93096831    2.88677973
 H                  3.85470277   -2.88101580    2.84737725
 N                  2.41804662    0.88165335    1.35163387
 C                  1.61655541    2.10434199    1.38947368
 C                  0.55772391    2.17150028    0.26718663
 O                 -0.50332787    2.75657275    0.45698102
 H                  3.14959156    3.34863905    0.45860512
 H                 -0.16306152    1.07790442   -4.11829408
 H                  3.35583657    0.93247483    0.95941660
 H                  1.03292048    2.09788944    2.31324235
 C                  2.52181819    3.34023188    1.35555470
 H                  3.17365138    3.36232211    2.23541796
 N                  0.89471856    1.60492728   -0.92672696
 C                 -0.09551520    1.48511300   -1.99339059
 C                 -1.17818134    0.43280543   -1.67472037
 O                 -2.36095934    0.64083057   -1.94545921
 H                  1.17450059    0.26332186   -3.27841598
 H                 -1.70808416   -3.77101082    0.06249285
 H                  1.70730632    1.00090242   -0.97259516
 H                 -0.63992304    2.42971327   -2.04843575
 C                  0.58949347    1.18811882   -3.33191014
 H                  1.25920085    2.01041551   -3.60480713
 N                 -0.75897426   -0.72142189   -1.09365221
 C                 -1.71459162   -1.76789778   -0.74187118
 C                 -2.78242593   -1.27985965    0.25754546
 O                 -3.92041962   -1.75089017    0.22681540
 H                 -0.43528375   -2.72564498    0.73084535
 H                 -3.26851648    1.55729461    3.81987410
 H                  0.22969164   -0.87928358   -0.92963860
 H                 -2.28536971   -2.04968587   -1.63245299
 C                 -0.98187267   -2.99072468   -0.18096212
 H                 -0.27582914   -3.39064475   -0.91749512
 N                 -2.39392948   -0.34035989    1.15193550
 C                 -3.31431394    0.19043630    2.15111114
 C                 -4.54287336    0.89299836    1.53980537
 O                 -5.57612600    0.98402600    2.20894987
 H                 -2.12741913    1.97781963    2.51739124
 H                 -5.89257263    3.34411044   -2.06391517
 H                 -1.41699377   -0.07000519    1.19991014
 H                 -3.73798708   -0.63747238    2.72988899
 C                 -2.56868427    1.15115568    3.08487424
 H                 -1.76651074    0.62419947    3.61317257
 N                 -4.41493626    1.40919368    0.29608107
 C                 -5.53159829    2.06810990   -0.37280310
 C                 -6.66522007    1.11504626   -0.82148856
 O                 -7.71088851    1.59827120   -1.24827209
 H                 -4.47619120    2.28377707   -2.26627023
 H                 -7.72422399   -3.11803043   -1.91726935
 H                 -3.56800077    1.24274417   -0.24031059
 H                 -6.01470973    2.72286988    0.35974174
 C                 -5.03219793    2.90365795   -1.55501152
 H                 -4.37096664    3.70410502   -1.20671604
 N                 -6.43501823   -0.21802310   -0.69665776
 C                 -7.46694132   -1.21575030   -0.93089622
 C                 -8.06903786   -1.79359878    0.37201886
 O                 -8.82220931   -2.76240217    0.32793362
 H                 -6.05328953   -2.80009146   -1.40137546
 H                  9.72305488   -2.59438098    1.23520264
 H                 -5.53112642   -0.55165703   -0.37335511
 H                 -8.28800849   -0.68915265   -1.42858988
 C                 -6.95539718   -2.34741271   -1.82896660
 H                 -6.70901864   -1.95936016   -2.82260843
 N                 -7.74769801   -1.15625130    1.52570622
 O                  8.65865865   -1.29129561   -0.79371121
 C                  9.86736766   -1.51168083    1.26926559
 H                  9.80131393   -1.16876987    2.30603899
 H                 -8.15478547   -1.51658199    2.37653467
 H                 -7.10232993   -0.37594999    1.58877688

