%chk=test0328
#p ROHF/sto-3g scf=tight test

Gaussian Test Job 328 (Part 1):
Phenylmethylene triplet (Cs)

0 3
C  -0.024973    2.460522    0.000000
H  -0.811194    3.216320    0.000000
C   0.000000    1.065032    0.000000
C  -1.221911    0.293441    0.000000
C   1.242322    0.334789    0.000000
C   0.046207   -1.791783    0.000000
C  -1.185480   -1.101573    0.000000
C   1.254099   -1.060063    0.000000
H  -2.179600    0.821377    0.000000
H   2.178592    0.898846    0.000000
H   0.064310   -2.885059    0.000000
H  -2.125053   -1.663185    0.000000
H   2.211357   -1.590481    0.000000

--Link1--
%chk=test0328
#p ROMP2/cc-pVDZ 5D test guess=read

Gaussian Test Job 328 (Part 2):
Phenylmethylene triplet (Cs)

0 3
C  -0.024973    2.460522    0.000000
H  -0.811194    3.216320    0.000000
C   0.000000    1.065032    0.000000
C  -1.221911    0.293441    0.000000
C   1.242322    0.334789    0.000000
C   0.046207   -1.791783    0.000000
C  -1.185480   -1.101573    0.000000
C   1.254099   -1.060063    0.000000
H  -2.179600    0.821377    0.000000
H   2.178592    0.898846    0.000000
H   0.064310   -2.885059    0.000000
H  -2.125053   -1.663185    0.000000
H   2.211357   -1.590481    0.000000

--Link1--
%chk=test0328
%nosave
#p ROMP2/cc-pVDZ 5D test guess=read use=l804

Gaussian Test Job 328 (Part 3):
Phenylmethylene triplet (Cs)

0 3
C  -0.024973    2.460522    0.000000
H  -0.811194    3.216320    0.000000
C   0.000000    1.065032    0.000000
C  -1.221911    0.293441    0.000000
C   1.242322    0.334789    0.000000
C   0.046207   -1.791783    0.000000
C  -1.185480   -1.101573    0.000000
C   1.254099   -1.060063    0.000000
H  -2.179600    0.821377    0.000000
H   2.178592    0.898846    0.000000
H   0.064310   -2.885059    0.000000
H  -2.125053   -1.663185    0.000000
H   2.211357   -1.590481    0.000000

