#p oniom(b3lyp/6-31g(d,p):amber)=(embedcharge) 
admp(maxpoint=10) scrf=(cpcm,read,oniompcm=x) 
iop(5/38=1) iop(1/8=2000) fmm iop(1/7=20) iop(1/75=20) 

Gaussian Test Job 998:
ADMP+ONIOM+PCM+Confining potential

   -1 1
CL-IM--1.   0.000000    0.000000    0.000000 
H-HW-0.417   5.029623    0.001804    1.486276   Low
H-HW-0.417   4.765894   -1.340365    0.837490   Low
H-HW-0.417    -1.534721    1.788738   -6.499523   Low
H-HW-0.417    -1.109049    2.162531   -7.903438   Low
H-HW-0.417    -6.237350   -7.516980    1.341120   Low
H-HW-0.417    -4.974489   -7.203383    0.567341   Low
H-HW-0.417    -2.713720   -5.629473    3.153265   Low
H-HW-0.417    -3.582413   -6.281841    2.098902   Low
H-HW-0.417    -1.538471   -1.834772   -6.152881   Low
H-HW-0.417    -0.982408   -2.596334   -4.968520   Low
H-HW-0.417    -4.133127    2.149824   -1.766788   Low
H-HW-0.417    -3.946354    2.906783   -0.469090   Low
H-HW-0.417    -3.309684   -1.385488   -7.788894   Low
H-HW-0.417    -4.027523   -2.708248   -7.624864   Low
H-HW-0.417    -2.521471   -4.771510   -6.462559   Low
H-HW-0.417    -2.610808   -3.352440   -5.942800   Low
H-HW-0.417     7.360143   -5.341382    0.950426   Low
H-HW-0.417     6.106249   -5.597521    0.141702   Low
H-HW-0.417    -4.118480    1.479648    2.366584   Low
H-HW-0.417    -5.525339    1.576415    1.815878   Low
O-OW--0.834    6.087994   -4.319119    3.181028   Low
H-HW-0.417     6.320687   -4.242408    4.106340   Low
H-HW-0.417     6.865269   -4.015452    2.712132   Low
O-OW--0.834    5.840740   -3.829111   -4.071126   Low
H-HW-0.417     5.283707   -3.864378   -3.293500   Low
H-HW-0.417     5.791125   -2.918131   -4.360757   Low
O-OW--0.834   -2.095196    2.495624   -5.090936   Low
H-HW-0.417    -1.875266    2.041614   -4.277463   Low
H-HW-0.417    -1.362529    3.093915   -5.237493   Low
O-OW--0.834    4.007841   -1.003525    4.311998   Low
H-HW-0.417     4.157034   -1.286543    3.409848   Low
H-HW-0.417     4.735711   -0.411387    4.501236   Low
O-OW--0.834   -0.809181    1.934693    5.004319   Low
H-HW-0.417    -0.884938    1.588164    5.893369   Low
H-HW-0.417    -1.575639    1.589853    4.546215   Low
O-OW--0.834    1.940622   -1.820335    1.985910   Low
H-HW-0.417     1.492859   -1.217540    1.392296   Low
H-HW-0.417     1.430010   -1.784200    2.794737   Low
O-OW--0.834   -7.944127   -1.357752   -5.054520   Low
H-HW-0.417    -7.574194   -2.187460   -5.356125   Low
H-HW-0.417    -7.287397   -0.702441   -5.290113   Low
O-OW--0.834   -7.420234   -1.244487   -2.454447   Low
H-HW-0.417    -6.718627   -1.894230   -2.497034   Low
H-HW-0.417    -7.896132   -1.350837   -3.278123   Low
O-OW--0.834   -5.657297    1.206656   -2.732106   Low
H-HW-0.417    -6.451704    0.780894   -2.409808   Low
H-HW-0.417    -5.203113    0.524432   -3.226595   Low
O-OW--0.834    9.490031    0.351075    0.283456   Low
H-HW-0.417     9.305669    0.944657   -0.444488   Low
H-HW-0.417     9.387250    0.892205    1.066302   Low
O-OW--0.834   -1.452611   -1.577972    2.350532   Low
H-HW-0.417    -1.395586   -2.430231    1.918521   Low
H-HW-0.417    -1.047427   -0.968568    1.733536   Low
O-OW--0.834    4.538308    7.330333   -3.771984   Low
H-HW-0.417     4.465846    7.791501   -4.607631   Low
H-HW-0.417     3.652071    7.347600   -3.410711   Low
O-OW--0.834   -1.687698    1.234770   -2.732975   Low
H-HW-0.417    -1.146867    0.702426   -2.149585   Low
H-HW-0.417    -2.274255    1.712812   -2.146752   Low
O-OW--0.834    6.663080    0.783410   -6.647170   Low
H-HW-0.417     5.989596    1.428880   -6.861694   Low
H-HW-0.417     7.298528    0.853789   -7.359550   Low
O-OW--0.834    3.071069    4.349626   -4.666380   Low
H-HW-0.417     3.772326    4.545582   -4.045033   Low
H-HW-0.417     3.210812    3.433182   -4.904777   Low
O-OW--0.834    5.527852    4.907038   -3.341986   Low
H-HW-0.417     6.037940    4.801127   -2.538976   Low
H-HW-0.417     5.236601    5.818650   -3.322810   Low
O-OW--0.834    1.707439   -3.933958   -6.126953     Low 
H-HW-0.417     2.370758   -4.614666   -6.240429     Low
H-HW-0.417     2.029859   -3.403811   -5.398104     Low
O-OW--0.834   -1.106962   -6.452879   -1.676128     Low
H-HW-0.417    -1.420034   -5.888475   -2.382999     Low
H-HW-0.417    -0.362984   -6.921309   -2.054681     Low
O-OW--0.834   -3.356552    7.830028   -1.231547     Low
H-HW-0.417    -3.375011    8.440791   -1.968338     Low
H-HW-0.417    -3.200528    6.974963   -1.632486     Low
O-OW--0.834   -8.354947   -0.353523    3.585744     Low
H-HW-0.417    -9.050041   -0.938594    3.887022     Low
H-HW-0.417    -8.311125   -0.499567    2.640766     Low
O-OW--0.834    1.571080    2.103738    8.771651     Low
H-HW-0.417     2.073006    2.826737    8.395388     Low
H-HW-0.417     1.383073    2.382873    9.667736     Low
O-OW--0.834    1.898369    2.511075    4.429225     Low
H-HW-0.417     1.097563    1.996517    4.530075     Low
H-HW-0.417     2.096762    2.465436    3.493923     Low
O-OW--0.834    8.764904   -2.359845   -1.203689     Low
H-HW-0.417     9.579665   -2.781664   -1.476571     Low
H-HW-0.417     8.957015   -1.422710   -1.236901     Low
O-OW--0.834    0.849100    5.496740   -0.698838     Low
H-HW-0.417     1.283724    4.930263   -0.061314     Low
H-HW-0.417     0.668677    4.924493   -1.444635     Low
O-OW--0.834   -2.512890    1.056276    8.685761     Low
H-HW-0.417    -1.706590    1.191433    8.187921     Low
H-HW-0.417    -3.188219    0.930269    8.019214     Low
O-OW--0.834    5.054210    0.487053   -1.935067     Low
H-HW-0.417     4.199442    0.731930   -2.289521     Low
H-HW-0.417     5.104994    0.942584   -1.094743     Low
O-OW--0.834   -2.958095    6.430115   -4.258850     Low
H-HW-0.417    -3.762580    5.940011   -4.428651     Low
H-HW-0.417    -2.456687    5.870373   -3.665966     Low
O-OW--0.834    4.040187   -7.038584   -1.753884     Low
H-HW-0.417     4.836894   -6.897926   -2.265455     Low
H-HW-0.417     4.324115   -6.965842   -0.842662     Low
O-OW--0.834    8.516716    2.069037   -1.254243     Low
H-HW-0.417     8.249005    2.944098   -0.973476     Low
H-HW-0.417     8.077052    1.941747   -2.094912     Low
O-OW--0.834    2.467277   -6.756231    6.050446     Low
H-HW-0.417     1.624155   -6.563617    6.460663     Low
H-HW-0.417     2.382233   -6.420581    5.158069     Low
O-OW--0.834    0.721070   -6.771064   -5.297149     Low
H-HW-0.417     1.247074   -6.234983   -4.703711     Low
H-HW-0.417     0.762420   -7.652022   -4.925079     Low
O-OW--0.834    1.284585   -1.974956    8.188046     Low
H-HW-0.417     1.678395   -2.792831    7.884357     Low
H-HW-0.417     0.350944   -2.171859    8.264044     Low
O-OW--0.834    4.963331    4.394997   -0.156489     Low
H-HW-0.417     4.209720    4.027720   -0.618453     Low
H-HW-0.417     4.609211    4.693334    0.681262     Low
O-OW--0.834   -6.182082   -3.658111   -5.847945     Low
H-HW-0.417    -5.565925   -4.236414   -5.398336     Low
H-HW-0.417    -5.628654   -3.076287   -6.368936     Low
O-OW--0.834   -5.061667   -3.023324    4.001604     Low
H-HW-0.417    -4.293344   -2.452852    4.023346     Low
H-HW-0.417    -5.547433   -2.742207    3.226209     Low
O-OW--0.834   -5.642435   -3.369788   -2.373304     Low
H-HW-0.417    -5.767253   -3.950197   -1.622453     Low
H-HW-0.417    -4.710841   -3.442739   -2.580770     Low
O-OW--0.834    4.979333    0.936048    6.216878     Low
H-HW-0.417     4.818241    1.879580    6.222311     Low
H-HW-0.417     4.301167    0.573518    6.786872     Low
O-OW--0.834   -0.078392   -3.861255    5.313205     Low
H-HW-0.417     0.352589   -3.979973    6.159605     Low
H-HW-0.417     0.194644   -2.990287    5.024938     Low
O-OW--0.834   -2.795012    7.229471    4.516702     Low
H-HW-0.417    -1.967579    6.751977    4.576585     Low
H-HW-0.417    -3.458728    6.547496    4.413632     Low
O-OW--0.834    8.475732    2.039666    2.057852     Low
H-HW-0.417     9.101741    2.629442    2.477980     Low
H-HW-0.417     8.394676    1.303894    2.664731     Low
O-OW--0.834    3.798235   -3.783007    4.790699     Low
H-HW-0.417     4.399660   -4.335973    4.291952     Low
H-HW-0.417     4.164203   -2.901732    4.715515     Low
O-OW--0.834    8.642134   -0.474041    3.409765   Low 
H-HW-0.417     8.670829   -1.228932    2.821932   Low 
H-HW-0.417     8.044022   -0.737155    4.109239   Low 
O-OW--0.834   -0.767741    2.926685    1.122189   Low 
H-HW-0.417    -0.504267    2.043576    0.863478   Low 
H-HW-0.417    -1.654502    3.023909    0.775151   Low 
O-OW--0.834    3.544380   -0.169279    8.689489   Low 
H-HW-0.417     3.432207    0.773731    8.809418   Low 
H-HW-0.417     2.658160   -0.525954    8.749725   Low 
O-OW--0.834   -2.364213   -3.529688   -2.061336   Low 
H-HW-0.417    -2.035270   -3.400775   -2.950948   Low 
H-HW-0.417    -1.638010   -3.265770   -1.496351   Low 
O-OW--0.834    0.132196    8.205595   -0.828444   Low 
H-HW-0.417     0.375703    7.305864   -0.610682   Low 
H-HW-0.417    -0.611590    8.397813   -0.257421   Low 
O-OW--0.834    1.140446   -1.424745    4.922282   Low 
H-HW-0.417     0.952733   -0.610510    5.389206   Low 
H-HW-0.417     2.050883   -1.335430    4.640572   Low 
O-OW--0.834    0.599255   -2.497591   -1.778863   Low 
H-HW-0.417     0.572776   -1.633085   -1.368789   Low 
H-HW-0.417     1.087411   -3.041549   -1.160764   Low 
O-OW--0.834    0.247102    3.873909   -5.313332   Low 
H-HW-0.417     1.008655    4.314425   -4.936219   Low 
H-HW-0.417     0.374046    3.943019   -6.259557   Low 
O-OW--0.834    1.278021    6.841854    5.623395   Low 
H-HW-0.417     1.020735    7.182185    6.480256   Low 
H-HW-0.417     0.701894    7.290157    5.004256   Low 
O-OW--0.834   -5.840482   -2.056288    1.567877   Low 
H-HW-0.417    -6.516150   -1.408387    1.368053   Low 
H-HW-0.417    -5.253475   -2.031741    0.812197   Low 
O-OW--0.834   -4.499085    4.332006   -4.922478   Low 
H-HW-0.417    -5.283130    3.783385   -4.945269   Low 
H-HW-0.417    -3.776530    3.713603   -4.814202   Low 
O-OW--0.834    2.523686    6.385625    2.076552   Low 
H-HW-0.417     2.368279    5.616086    1.528930   Low 
H-HW-0.417     2.416396    6.067827    2.973059   Low 
O-OW--0.834    5.766578   -1.169315   -4.932013   Low 
H-HW-0.417     6.201749   -0.592547   -5.559864   Low 
H-HW-0.417     5.924608   -0.760502   -4.081055   Low 
O-OW--0.834   -4.474937   -2.438268    7.160421   Low 
H-HW-0.417    -4.381295   -2.676299    6.238031   Low 
H-HW-0.417    -4.778382   -3.240353    7.585642   Low 
O-OW--0.834    1.810755   -4.214085    0.321732   Low 
H-HW-0.417     1.661448   -3.669597    1.094695   Low 
H-HW-0.417     1.139850   -4.894776    0.374443   Low 
O-OW--0.834    7.876937   -2.687125    1.760385   Low 
H-HW-0.417     6.970118   -2.466073    1.548142   Low 
H-HW-0.417     8.282626   -2.874756    0.913956   Low 
O-OW--0.834   -0.212203   -6.561789    6.558676   Low 
H-HW-0.417    -0.922173   -6.243036    6.001387   Low 
H-HW-0.417    -0.563970   -7.353163    6.966374   Low 
O-OW--0.834    3.751699    5.998815    4.898669   Low 
H-HW-0.417     2.897604    6.355347    5.142878   Low 
H-HW-0.417     4.374356    6.688370    5.128982   Low 
O-OW--0.834   -5.956916   -4.482405   -0.029908   Low 
H-HW-0.417    -5.980824   -5.404236    0.226780   Low 
H-HW-0.417    -6.013559   -4.001781    0.795939   Low 
O-OW--0.834   -2.573499   -2.602376    4.801065   Low 
H-HW-0.417    -2.129463   -2.304487    4.007134   Low 
H-HW-0.417    -1.983120   -2.355925    5.513066   Low 
O-OW--0.834   -3.937651    0.323890    6.189419   Low 
H-HW-0.417    -4.705957    0.734103    5.792350   Low 
H-HW-0.417    -4.242092   -0.541336    6.463154   Low 
O-OW--0.834    1.005004   -8.728969   -3.571889   Low 
H-HW-0.417     1.305430   -8.809971   -2.666673   Low 
H-HW-0.417     1.525214   -9.370474   -4.055710   Low 
O-OW--0.834    2.484411    0.969541   -2.359001   Low 
H-HW-0.417     2.218629    0.342963   -1.685955   Low 
H-HW-0.417     1.796014    0.916066   -3.021935   Low 
O-OW--0.834    7.692712    4.795109   -0.547500   Low 
H-HW-0.417     8.071733    5.333158    0.147538   Low 
H-HW-0.417     6.761506    4.745274   -0.331619   Low 
O-OW--0.834    3.753509    3.425427    6.017301   Low 
H-HW-0.417     3.896805    4.347647    5.804680   Low 
H-HW-0.417     3.073054    3.141353    5.406960   Low 
O-OW--0.834    2.286278    1.426000    1.746298    Low 
H-HW-0.417     3.089512    0.926531    1.599406    Low
H-HW-0.417     1.626452    0.981275    1.214243    Low
O-OW--0.834   -5.203490   -5.098850    5.614253    Low
H-HW-0.417    -6.076942   -5.428799    5.825077    Low
H-HW-0.417    -5.358712   -4.392129    4.987607    Low
O-OW--0.834   -6.016180    0.622253    0.043039    Low
H-HW-0.417    -5.174862    0.168796   -0.009801    Low
H-HW-0.417    -5.972911    1.288988   -0.642399    Low
O-OW--0.834    6.898696   -1.049561    5.306586    Low
H-HW-0.417     6.537382   -0.191093    5.527306    Low
H-HW-0.417     6.328960   -1.672830    5.757329    Low
O-OW--0.834   -0.844030    4.913055    4.419139    Low
H-HW-0.417     0.030065    5.037610    4.049443    Low
H-HW-0.417    -0.894928    3.975299    4.604220    Low
O-OW--0.834   -3.709678    3.063659   -7.592356    Low
H-HW-0.417    -3.400508    2.492999   -6.888799    Low
H-HW-0.417    -4.403566    3.586139   -7.190154    Low
O-OW--0.834    5.921454    1.489333    0.719882    Low
H-HW-0.417     5.660370    2.328068    1.100134    Low
H-HW-0.417     6.852061    1.410115    0.929466    Low
O-OW--0.834   -4.609217    4.358715    0.519224    Low
H-HW-0.417    -4.626697    5.206593    0.075346    Low
H-HW-0.417    -4.799948    4.563114    1.434689    Low
O-OW--0.834   -0.115233    0.594933    7.221385    Low
H-HW-0.417     0.020716   -0.253796    7.642584    Low
H-HW-0.417     0.562384    1.159048    7.593999    Low
O-OW--0.834    2.034397   -8.799273   -1.006343    Low
H-HW-0.417     1.939615   -8.555176   -0.085656    Low
H-HW-0.417     2.784897   -8.290668   -1.313429    Low
O-OW--0.834   -3.739652   -7.585466   -0.837451    Low
H-HW-0.417    -3.769028   -7.746995   -1.780466    Low
H-HW-0.417    -2.898471   -7.151677   -0.694363    Low
O-OW--0.834    3.035384   -1.726879   -4.432566    Low
H-HW-0.417     3.895543   -1.528981   -4.802962    Low
H-HW-0.417     3.223904   -2.254547   -3.656512    Low
O-OW--0.834   -2.870447    0.541458    3.704365    Low
H-HW-0.417    -2.401208   -0.242662    3.419406    Low
H-HW-0.417    -3.220029    0.312281    4.565470    Low
O-OW--0.834    7.118306    2.251207   -3.842492    Low
H-HW-0.417     6.850111    1.655180   -4.541817    Low
H-HW-0.417     6.562709    3.022063   -3.957929    Low
O-OW--0.834    1.176040    0.198621   -4.744403    Low
H-HW-0.417     1.706322   -0.598252   -4.749500    Low
H-HW-0.417     0.271652   -0.114924   -4.746447    Low
O-OW--0.834    2.597432   -5.380956   -3.538119    Low
H-HW-0.417     2.709293   -6.152025   -2.982086    Low
H-HW-0.417     3.410404   -4.887321   -3.430262    Low
O-OW--0.834   -1.428957   -1.248230   -8.031623    Low
H-HW-0.417    -0.559602   -1.409202   -8.398423    Low
H-HW-0.417    -1.495089   -0.294683   -7.980563    Low
O-OW--0.834   -3.901273   -0.324830   -3.965257    Low
H-HW-0.417    -3.137162   -0.076961   -3.444750    Low
H-HW-0.417    -3.624261   -1.108434   -4.440084    Low
O-OW--0.834   -5.715804    0.348470   -6.227122    Low
H-HW-0.417    -5.295747   -0.188531   -6.898996    Low
H-HW-0.417    -5.165546    0.236748   -5.451903    Low
O-OW--0.834    1.991256   -5.451683    3.855448    Low
H-HW-0.417     2.558191   -4.706003    4.052367    Low
H-HW-0.417     1.131089   -5.193155    4.186366    Low
O-OW--0.834    1.915438    7.732658   -3.118970    Low
H-HW-0.417     1.186889    8.203521   -2.714327    Low
H-HW-0.417     1.858350    6.847421   -2.759347    Low
O-OW--0.834    3.971526   -3.066556   -2.261473    Low
H-HW-0.417     3.264588   -3.079523   -1.616257    Low
H-HW-0.417     4.740099   -2.777447   -1.769596    Low
O-OW--0.834    0.086175    8.005089    3.207763    Low
H-HW-0.417     0.777440    8.235895    2.587188    Low
H-HW-0.417    -0.727883    8.158017    2.728018    Low
O-OW--0.834   -4.076304    4.455298    3.151500    Low
H-HW-0.417    -4.574766    3.692351    2.858790    Low
H-HW-0.417    -3.210117    4.108483    3.365208    Low
O-OW--0.834    5.864103    1.644426    3.863478    Low
H-HW-0.417     6.811308    1.749935    3.952375    Low
H-HW-0.417     5.552420    1.511133    4.758642    Low
O-OW--0.834    5.902646   -2.014000   -0.838517   Low 
H-HW-0.417     5.908707   -1.091327   -1.093210   Low 
H-HW-0.417     6.778058   -2.330330   -1.061725   Low 
O-OW--0.834   -1.932191    8.021568    1.197991   Low 
H-HW-0.417    -2.573329    8.244864    0.523224   Low 
H-HW-0.417    -2.420700    7.490349    1.826797   Low 
O-OW--0.834    6.580404   -6.006956   -2.590125   Low 
H-HW-0.417     6.380160   -5.327100   -3.233499   Low 
H-HW-0.417     6.924314   -5.529239   -1.835311   Low 
O-OW--0.834   -8.263688   -0.700905    0.303430   Low 
H-HW-0.417    -7.656698    0.037553    0.253684   Low 
H-HW-0.417    -8.132468   -1.175148   -0.517610   Low 
O-OW--0.834    4.605808   -4.700080   -6.402544   Low 
H-HW-0.417     5.198652   -4.673814   -5.651492   Low 
H-HW-0.417     4.923801   -5.430005   -6.933883   Low 
O-OW--0.834   -6.732890    2.568843   -5.199227   Low 
H-HW-0.417    -6.695358    2.128034   -4.350398   Low 
H-HW-0.417    -6.654966    1.862256   -5.840238   Low 
O-OW--0.834    5.314128   -2.276334    6.912422   Low 
H-HW-0.417     4.358267   -2.290248    6.863767   Low 
H-HW-0.417     5.515350   -1.520726    7.464507   Low 
O-OW--0.834   -2.174274    5.327503   -1.763877   Low 
H-HW-0.417    -1.284470    5.493355   -1.452471   Low 
H-HW-0.417    -2.289797    4.382152   -1.667967   Low 
O-OW--0.834   -0.944308   -5.416836   -7.288026   Low 
H-HW-0.417    -0.280958   -4.767198   -7.055285   Low 
H-HW-0.417    -0.694516   -6.200760   -6.798845   Low 
O-OW--0.834   -0.965859    4.765002   -7.772178   Low 
H-HW-0.417    -1.818489    4.412627   -8.027295   Low 
H-HW-0.417    -1.170361    5.580658   -7.314886   Low 
O-OW--0.834    4.668638    4.001514    2.757913   Low 
H-HW-0.417     4.112783    4.502992    3.354384   Low 
H-HW-0.417     4.786382    3.156889    3.192627   Low 
O-OW--0.834   -3.278963   -0.582111   -0.132277   Low 
H-HW-0.417    -3.066222   -1.407255    0.303740   Low 
H-HW-0.417    -2.478705   -0.061370   -0.064106   Low 
O-OW--0.834    1.949708    3.965469    1.197403   Low 
H-HW-0.417     1.028208    3.806342    1.401725   Low 
H-HW-0.417     2.369588    3.111637    1.301829   Low 
O-OW--0.834    4.137559   -6.018668    0.890078   Low 
H-HW-0.417     3.430576   -6.522737    1.292970   Low 
H-HW-0.417     3.836356   -5.110850    0.927167   Low 
O-OW--0.834    2.005827   -4.315693    7.139839   Low 
H-HW-0.417     2.269756   -5.205215    7.375047   Low 
H-HW-0.417     2.576807   -4.081507    6.408149   Low 
O-OW--0.834   -1.601236   -2.142982    8.216594   Low 
H-HW-0.417    -1.972190   -1.396545    8.687186   Low 
H-HW-0.417    -2.353674   -2.701416    8.021097   Low 
O-OW--0.834    2.149886    8.799144    1.077751   Low 
H-HW-0.417     2.449260    7.908099    1.258436   Low 
H-HW-0.417     1.636158    8.721330    0.273848   Low 
O-OW--0.834   -0.080219   -3.897275   -4.077468   Low 
H-HW-0.417     0.511879   -3.607384   -3.383483   Low 
H-HW-0.417     0.499117   -4.166588   -4.790260   Low 
O-OW--0.834    3.774027    1.607954   -5.492208   Low 
H-HW-0.417     2.871708    1.303240   -5.396287   Low 
H-HW-0.417     4.251477    1.169756   -4.787754   Low 
O-OW--0.834   -2.663420   -5.560565    5.147443   Low 
H-HW-0.417    -3.534185   -5.230965    5.369624   Low 
H-HW-0.417    -2.106404   -4.782148    5.141808   Low 
O-OW--0.834   -0.315217   -6.043696    0.763695   Low 
H-HW-0.417    -1.088711   -5.959912    1.321296   Low 
H-HW-0.417    -0.663233   -6.284587   -0.094843   Low 
O-OW--0.834    0.555422    3.770006   -2.671007   Low 
H-HW-0.417     0.852089    2.869763   -2.537655   Low 
H-HW-0.417     0.388344    3.830795   -3.611550   Low 
O-OW--0.834   -3.602574   -8.275354   -3.421441   Low 
H-HW-0.417    -3.452744   -8.039368   -4.336915   Low 
H-HW-0.417    -4.104200   -9.089552   -3.462494   Low 
O-OW--0.834   -6.170547    0.963905    4.870884   Low 
H-HW-0.417    -5.825130    1.376416    4.079206   Low 
H-HW-0.417    -6.811268    0.328959    4.550648   Low 
O-OW--0.834   -2.850065   -3.317169    0.675237   Low 
H-HW-0.417    -2.977540   -4.112523    1.192339   Low 
H-HW-0.417    -2.941308   -3.604400   -0.233281   Low 
O-OW--0.834    1.739988   -7.379714    1.747582  Low
H-HW-0.417     1.870886   -7.005901    2.618996  Low
H-HW-0.417     0.928221   -6.980527    1.434668  Low
O-OW--0.834   4.646750   -0.858883    1.656155   Low
O-OW--0.834   -1.210713    1.412273   -7.317768   Low
O-OW--0.834   -5.543808   -6.862612    1.257257   Low
O-OW--0.834   -2.803782   -5.735540    2.206232   Low
O-OW--0.834   -1.748082   -2.099760   -5.257294   Low
O-OW--0.834   -3.534243    2.246615   -1.026382   Low
O-OW--0.834   -4.174821   -1.762457   -7.628693   Low
O-OW--0.834   -3.124863   -4.033424   -6.376665   Low
O-OW--0.834    7.028911   -5.358825    0.052533   Low
O-OW--0.834   -4.947593    1.943034    2.485230   Low


 1 0
 2 1
 2 1
 3 1
 3 1
 4 1
 4 1
 5 1
 5 1
 6 1
 6 1
 7 1
 7 1
 8 1
 8 1
 9 1
 9 1
 10 1
 10 1
 11 1 
 11 1 
 12 1 
 12 1 
 12 1 
 13 1 
 13 1 
 13 1 
 14 1 
 14 1 
 14 1 
 15 1 
 15 1 
 15 1 
 16 1 
 16 1 
 16 1 
 17 1 
 17 1 
 17 1 
 18 1 
 18 1 
 18 1 
 19 1 
 19 1 
 19 1 
 20 1 
 20 1 
 20 1 
 21 1
 21 1
 21 1
 22 1
 22 1
 22 1
 23 1
 23 1
 23 1
 24 1
 24 1
 24 1
 25 1
 25 1
 25 1
 26 1
 26 1
 26 1
 27 1
 27 1
 27 1
 28 1
 28 1
 28 1
 29 1
 29 1
 29 1
 30 1
 30 1
 30 1
 31 1
 31 1
 31 1
 32 1
 32 1
 32 1
 33 1
 33 1
 33 1
 34 1
 34 1
 34 1
 35 1
 35 1
 35 1
 36 1
 36 1
 36 1
 37 1
 37 1
 37 1
 38 1
 38 1
 38 1
 39 1
 39 1
 39 1
 40 1
 40 1
 40 1
 41 1
 41 1
 41 1
 42 1
 42 1
 42 1
 43 1
 43 1
 43 1
 44 1
 44 1
 44 1
 45 1
 45 1
 45 1
 46 1
 46 1
 46 1
 47 1
 47 1
 47 1
 48 1
 48 1
 48 1
 49 1
 49 1
 49 1
 50 1
 50 1
 50 1
 51 1
 51 1
 51 1
 52 1
 52 1
 52 1
 53 1
 53 1
 53 1
 54 1
 54 1
 54 1
 55 1
 55 1
 55 1
 56 1
 56 1
 56 1
 57 1
 57 1
 57 1
 58 1
 58 1
 58 1
 59 1
 59 1
 59 1
 60 1
 60 1
 60 1
 61 1
 61 1
 61 1
 62 1
 62 1
 62 1
 63 1
 63 1
 63 1
 64 1
 64 1
 64 1
 65 1
 65 1
 65 1
 66 1
 66 1
 66 1
 67 1
 67 1
 67 1
 68 1
 68 1
 68 1
 69 1
 69 1
 69 1
 70 1
 70 1
 70 1
 71 1
 71 1
 71 1
 72 1
 72 1
 72 1
 73 1
 73 1
 73 1
 74 1
 74 1
 74 1
 75 1
 75 1
 75 1
 76 1
 76 1
 76 1
 77 1
 77 1
 77 1
 78 1
 78 1
 78 1
 79 1
 79 1
 79 1
 80 1
 80 1
 80 1
 81 1
 81 1
 81 1
 82 1
 82 1
 82 1
 83 1
 83 1
 83 1
 84 1
 84 1
 84 1
 85 1
 85 1
 85 1
 86 1
 86 1
 86 1
 87 1
 87 1
 87 1
 88 1
 88 1
 88 1
 89 1
 89 1
 89 1
 90 1
 90 1
 90 1
 91 1
 91 1
 91 1
 92 1
 92 1
 92 1
 93 1
 93 1
 93 1
 94 1
 94 1
 94 1
 95 1
 95 1
 95 1
 96 1
 96 1
 96 1
 97 1
 97 1
 97 1
 98 1
 98 1
 98 1
 99 1
 99 1
 99 1
 100 1
 100 1
 100 1
 101 1
 101 1
 101 1
 102 1
 102 1
 102 1
 103 1
 103 1
 103 1
 104 1
 104 1
 104 1
 105 1
 105 1
 105 1
 106 1
 106 1
 106 1
 107 1
 107 1
 107 1
 108 1
 108 1
 108 1
 109 1
 109 1
 109 1
 110 1
 110 1
 110 1
 111 1
 111 1
 111 1
 112 1
 112 1
 112 1
 113 1
 113 1
 113 1
 114 1
 114 1
 114 1
 115 1
 115 1
 115 1
 116 1
 116 1
 116 1
 117 1
 117 1
 117 1
 118 1
 118 1
 118 1
 119 1
 119 1
 119 1
 120 1
 120 1
 120 1
 121 1
 121 1
 121 1
 122 1
 122 1
 122 1
 123 1
 123 1
 123 1
 124 1
 124 1
 124 1
 125 1
 125 1
 125 1
 126 1
 126 1
 126 1
 127 1
 127 1
 127 1
 128 1
 128 1
 128 1
 2 1
 3 1
 4 1
 5 1
 6 1
 7 1
 8 1
 9 1
 10 1
 11 1 

nsfe=1 tsare=1.2 NoCav NoRep NoDis fixgrd inversion

0.0 0.0 0.0 12.0 1.0


