#p b3lyp/lp-31G* 6d opt test 

Gaussian Test Job 586:
Polyvinyl something optimization

0,1
              C            0       -2.843216    0.456124    0.000000
              C            0       -1.411819    0.191042    0.000000
              C            0       -0.851851   -1.097594    0.000000
              C            0        0.519309   -1.278269    0.000000
              C            0        1.411819   -0.191042    0.000000
              C            0        0.851851    1.097594    0.000000
              C            0       -0.519308    1.278269    0.000000
              C            0        2.843216   -0.456124    0.000000
              H            0       -3.104149    1.513949    0.000000
              H            0       -1.496895   -1.971562    0.000000
              H            0        0.922885   -2.288594    0.000000
              H            0        1.496895    1.971562    0.000000
              H            0       -0.922886    2.288594    0.000000
              H            0        3.104149   -1.513949    0.000000
              Tv           0        6.679841    0.000000    0.000000

